/*--------------------------------*- C++ -*----------------------------------*\
| =========                 |                                                 |
| \\      /  F ield         | OpenFOAM: The Open Source CFD Toolbox           |
|  \\    /   O peration     | Version:  2.2.x                                 |
|   \\  /    A nd           | Web:      www.OpenFOAM.org                      |
|    \\/     M anipulation  |                                                 |
\*---------------------------------------------------------------------------*/
FoamFile
{
    version     2.0;
    format      ascii;
    class       vectorFieldField;
    location    "0.0002";
    object      collisionRecordsPairData;
}
// * * * * * * * * * * * * * * * * * * * * * * * * * * * * * * * * * * * * * //


2405
(
1((-5.73717e-25 -1.04766e-07 -2.61824e-13))
1((0 -2.30512e-07 -5.76282e-13))
1((0 -6.44159e-09 0))
2((0 -3.10434e-17 4.99614e-08) (0 3.1479e-07 -2.42861e-21))
2((0 3.10434e-17 -4.99614e-08) (0 1.49395e-07 6.07153e-22))
1((0 1.04846e-07 -1.73472e-22))
1((0 1.83319e-07 1.43115e-21))
1((0 0 0))
2((0 0 8.11118e-08) (0 -1.59556e-07 2.77556e-21))
2((0 0 -8.11118e-08) (0 3.16821e-08 1.73472e-22))
2((0 -4.44377e-17 7.15182e-08) (0 1.39171e-07 0))
2((0 4.44377e-17 -7.15182e-08) (0 -1.27021e-07 0))
2((0 -2.66801e-15 1.51813e-06) (0 0 0))
2((0 2.66801e-15 -1.51813e-06) (0 3.54583e-07 0))
2((-3.56478e-34 -2.10221e-16 3.3833e-07) (0 1.74066e-06 3.1225e-21))
2((3.56478e-34 2.10221e-16 -3.3833e-07) (-5.73717e-25 -2.42151e-06 0))
1((0 0 0))
1((0 1.31924e-06 0))
1((0 -6.14876e-07 4.16334e-21))
1((0 1.30013e-07 3.46945e-22))
2((0 0 1.0903e-06) (-5.73717e-25 2.22597e-06 -7.63278e-21))
2((0 0 -1.0903e-06) (0 8.60422e-06 1.49186e-19))
1((0 0 0))
1((0 -1.8089e-06 1.249e-20))
2((0 1.00939e-15 -1.62451e-06) (0 0 0))
2((0 -1.00939e-15 1.62451e-06) (0 -9.14674e-07 0))
1((0 3.34608e-07 0))
1((0 0 0))
2((0 0 -7.89691e-09) (0 -1.05655e-06 1.83013e-20))
2((0 0 7.89691e-09) (0 -1.54833e-06 0))
1((-5.73717e-25 6.43486e-07 -2.25514e-21))
1((0 0 0))
1((0 -1.03003e-06 0))
1((0 4.08026e-07 -2.77556e-21))
2((0 0 7.18659e-07) (0 2.74578e-07 1.9082e-21))
2((0 0 -7.18659e-07) (0 -2.7738e-07 1.9082e-21))
1((0 -8.50688e-07 -1.17961e-20))
2((5.73717e-25 1.04766e-07 2.61824e-13) (0 -1.29299e-13 -5.17033e-08))
3((0 2.30512e-07 5.76282e-13) (0 -1.99896e-07 8.74558e-13) (0 1.29299e-13 5.17033e-08))
1((0 6.44159e-09 0))
2((0 -3.1479e-07 2.42861e-21) (0 2.58176e-07 1.77368e-12))
2((0 -8.72726e-08 1.63538e-13) (0 -1.49395e-07 -6.07153e-22))
3((0 -1.04846e-07 1.73472e-22) (0 -5.58069e-08 -1.04575e-13) (0 6.50521e-22 -6.42487e-08))
4((0 -1.83319e-07 -1.43115e-21) (0 1.40253e-07 -9.64081e-13) (0 -6.50521e-22 6.42487e-08) (0 -2.84017e-13 4.54314e-08))
3((0 0 0) (0 0 0) (0 2.84017e-13 -4.54314e-08))
3((0 2.25514e-21 1.7303e-07) (0 -1.60428e-07 -1.10215e-12) (0 1.59556e-07 -2.77556e-21))
3((0 -2.25514e-21 -1.7303e-07) (0 2.12514e-07 -3.98381e-13) (0 -3.16821e-08 -1.73472e-22))
1((0 -1.39171e-07 0))
1((0 1.27021e-07 0))
2{(0 0 0)}
2((0 -3.54583e-07 0) (0 3.48555e-17 6.70122e-08))
3((0 -1.74066e-06 -3.1225e-21) (0 0 0) (0 -3.48555e-17 -6.70122e-08))
1((5.73717e-25 2.42151e-06 0))
1((0 0 0))
2((0 -1.31924e-06 0) (0 0 0))
3((0 6.14876e-07 -4.16334e-21) (0 -1.33016e-07 -9.1411e-13) (0 -4.85723e-21 -4.75843e-07))
3((0 -1.30013e-07 -3.46945e-22) (0 -3.33675e-07 6.25261e-13) (0 4.85723e-21 4.75843e-07))
3((0 -3.05311e-20 2.43856e-06) (0 -1.63871e-06 -3.07072e-12) (5.73717e-25 -2.22597e-06 7.63278e-21))
3((0 3.05311e-20 -2.43856e-06) (0 2.78063e-06 -1.91091e-11) (0 -8.60422e-06 -1.49186e-19))
1((0 0 0))
3((0 1.8089e-06 -1.249e-20) (0 0 0) (0 -8.32667e-21 -8.67157e-07))
3((0 0 0) (0 0 0) (0 8.32667e-21 8.67157e-07))
1((0 9.14674e-07 0))
1((0 -3.34608e-07 0))
1((0 0 0))
3((0 3.2408e-16 -1.3195e-07) (0 0 0) (0 1.05655e-06 -1.83013e-20))
2((0 -3.2408e-16 1.3195e-07) (0 1.54833e-06 0))
3((5.73717e-25 -6.43486e-07 2.25514e-21) (0 0 0) (0 2.42861e-21 -2.469e-07))
3((0 0 0) (0 1.05543e-06 -7.25311e-12) (0 -2.42861e-21 2.469e-07))
2((0 -7.75443e-07 0) (0 1.03003e-06 0))
2((0 -4.08026e-07 2.77556e-21) (0 1.79784e-07 1.23551e-12))
2((0 3.06305e-07 -5.73975e-13) (0 -2.74578e-07 -1.9082e-21))
3((0 -2.09125e-07 -3.91874e-13) (0 2.7738e-07 -1.9082e-21) (0 7.63278e-21 -5.99436e-07))
3((0 -5.47557e-07 3.76448e-12) (0 8.50688e-07 1.17961e-20) (0 -7.63278e-21 5.99436e-07))
1((1.61682e-27 4.53783e-08 -2.26779e-13))
1((0 1.99896e-07 -8.74558e-13))
1((0 0 0))
2((0 -2.58176e-07 -1.77368e-12) (0 0 0))
2((0 8.72726e-08 -1.63538e-13) (0 0 0))
2((0 0 0) (0 5.58069e-08 1.04575e-13))
2((0 -1.40253e-07 9.64081e-13) (0 -8.84771e-17 6.73025e-08))
3((0 8.84771e-17 -6.73025e-08) (0 0 0) (0 5.20417e-21 4.82904e-07))
2((0 1.60428e-07 1.10215e-12) (0 -5.20417e-21 -4.82904e-07))
2((0 -2.12514e-07 3.98381e-13) (0 -2.49228e-12 3.9892e-07))
3((0 2.49228e-12 -3.9892e-07) (0 1.73472e-21 6.23143e-07) (0 2.51376e-07 1.01448e-16))
1((0 -1.73472e-21 -6.23143e-07))
1((0 0 0))
0()
2((0 0 0) (0 -8.28867e-12 1.32643e-06))
3((0 8.28867e-12 -1.32643e-06) (0 6.245e-21 2.5223e-06) (0 2.50545e-06 1.01113e-15))
2((0 -6.245e-21 -2.5223e-06) (0 -9.44169e-11 -5.81038e-06))
3((0 -8.79138e-11 8.79065e-06) (0 9.44169e-11 5.81038e-06) (0 0 0))
2((0 1.33016e-07 9.1411e-13) (0 8.79138e-11 -8.79065e-06))
2((0 3.33675e-07 -6.25261e-13) (0 3.93007e-15 -2.98954e-06))
2((0 -3.93007e-15 2.98954e-06) (0 1.63871e-06 3.07072e-12))
2((0 -2.78063e-06 1.91091e-11) (0 1.62304e-10 -5.19737e-06))
3((0 -1.62304e-10 5.19737e-06) (0 0 0) (0 0 0))
2{(0 0 0)}
2((0 0 0) (0 1.50248e-11 -2.40441e-06))
3((0 -1.50248e-11 2.40441e-06) (0 1.73472e-21 -5.2468e-07) (0 -1.846e-06 -7.44988e-16))
3((0 -5.4225e-12 -8.67597e-07) (0 -1.73472e-21 5.2468e-07) (0 -2.94906e-06 2.56083e-15))
2((0 5.4225e-12 8.67597e-07) (0 3.88234e-15 -1.58069e-06))
2((0 -3.88234e-15 1.58069e-06) (0 0 0))
2((0 -7.22074e-12 -1.15553e-06) (0 -1.70815e-06 6.89357e-16))
2((0 7.22074e-12 1.15553e-06) (0 0 0))
2((0 -1.05543e-06 7.25311e-12) (0 3.19355e-12 -8.51725e-07))
3((0 -3.19355e-12 8.51725e-07) (0 7.75443e-07 0) (0 -4.35586e-12 -1.16172e-06))
2((0 -1.79784e-07 -1.23551e-12) (0 4.35586e-12 1.16172e-06))
2((0 -3.06305e-07 5.73975e-13) (0 0 1.65994e-06))
2((0 0 -1.65994e-06) (0 2.09125e-07 3.91874e-13))
1((0 5.47557e-07 -3.76448e-12))
1((-1.61682e-27 -4.53783e-08 2.26779e-13))
0()
0()
1((0 0 -5.31842e-07))
1((0 0 5.31842e-07))
0()
0()
0()
1((0 0 3.3163e-07))
1((0 0 -3.3163e-07))
2((0 0 7.64303e-07) (0 -2.51376e-07 -1.01448e-16))
1((0 0 -7.64303e-07))
1((0 0 4.20891e-06))
1((0 0 -4.20891e-06))
1((0 0 1.3603e-06))
2((0 0 -1.3603e-06) (0 -2.50545e-06 -1.01113e-15))
0()
2((0 -1.01889e-13 5.1855e-06) (0 1.01719e-08 0))
1((0 1.01889e-13 -5.1855e-06))
0()
1((0 0 3.60284e-07))
1((0 0 -3.60284e-07))
2((0 0 0) (0 -2.41356e-06 0))
0()
1((0 0 -2.43522e-06))
2((0 0 2.43522e-06) (0 1.846e-06 7.44988e-16))
1((0 2.94906e-06 -2.56083e-15))
0()
1((0 0 -1.10758e-06))
2((0 0 1.10758e-06) (0 1.70815e-06 -6.89357e-16))
0()
0()
0()
0()
1((0 0 2.03487e-06))
1((0 0 -2.03487e-06))
0()
1((0 0 1.00245e-07))
2((0 0 9.04838e-09) (0 0 -1.00245e-07))
1((0 0 -9.04838e-09))
1((0 0 -1.83718e-07))
1((0 0 1.83718e-07))
0()
0()
0()
1((0 0 4.57672e-07))
1((0 0 -4.57672e-07))
1((0 0 7.78714e-07))
1((0 0 -7.78714e-07))
1((0 0 3.52057e-06))
1((0 0 -3.52057e-06))
1((0 0 9.41352e-07))
1((0 0 -9.41352e-07))
0()
1((0 -1.01719e-08 0))
0()
0()
1((0 0 -1.79118e-06))
1((0 0 1.79118e-06))
1((0 2.41356e-06 0))
0()
1((0 0 -2.48227e-06))
1((0 0 2.48227e-06))
0()
0()
1((0 0 -1.27903e-06))
1((0 0 1.27903e-06))
0()
0()
0()
0()
1((0 0 1.90537e-06))
1((0 0 -1.90537e-06))
0()
0()
1((0 3.49147e-08 3.90313e-22))
0()
2((0 0 -1.65392e-07) (0 -8.42177e-08 1.43115e-21))
2((0 0 1.65392e-07) (0 -4.29977e-08 -1.73472e-22))
1((0 -4.79491e-08 2.1684e-22))
1((0 -8.6512e-08 -1.42573e-21))
0()
1((0 0 5.48752e-07))
2((0 0 -5.48752e-07) (0 2.44204e-07 1.30104e-21))
2((0 0 8.08336e-07) (0 4.74855e-07 -2.47198e-21))
1((0 0 -8.08336e-07))
2((0 0 3.32413e-06) (0 0 0))
2((0 0 -3.32413e-06) (0 1.70106e-06 -2.94903e-20))
2((0 0 1.18005e-07) (0 0 0))
2((0 0 -1.18005e-07) (0 2.08943e-06 -1.0842e-20))
1((0 0 0))
1((0 0 1.23732e-06))
2((0 0 -1.23732e-06) (0 -7.01437e-07 1.249e-20))
1((0 -8.95467e-07 -3.1225e-21))
2((0 0 -1.95085e-06) (0 -1.94564e-06 6.76542e-21))
1((0 0 1.95085e-06))
0()
1((0 0 0))
2((0 0 -3.03539e-06) (0 -2.46813e-06 -8.58688e-21))
2((0 0 3.03539e-06) (0 -2.02247e-06 7.02563e-21))
1((0 0 0))
0()
2((0 0 -1.17969e-06) (0 0 0))
2((0 0 1.17969e-06) (0 0 0))
1((0 -1.88919e-06 6.54858e-21))
1((0 0 0))
0()
1((0 -3.77416e-07 5.55112e-21))
2((0 0 5.14266e-06) (0 -4.15517e-07 -2.77556e-21))
2((0 0 -5.14266e-06) (0 -3.44638e-07 2.42861e-21))
1((0 -6.07377e-07 -8.32667e-21))
1((0 2.62563e-16 1.06903e-07))
3((0 5.8625e-09 -2.5608e-14) (0 -3.49147e-08 -3.90313e-22) (0 -2.62563e-16 -1.06903e-07))
2((0 1.65158e-07 1.85689e-12) (0 1.34404e-13 3.58386e-08))
4((0 -2.90566e-21 -2.2247e-07) (0 -7.41075e-08 -5.09492e-13) (0 8.42177e-08 -1.43115e-21) (0 -1.34404e-13 -3.58386e-08))
3((0 2.90566e-21 2.2247e-07) (0 -2.39488e-08 4.48769e-14) (0 4.29977e-08 1.73472e-22))
3((0 -2.20449e-08 -4.13093e-14) (0 4.79491e-08 -2.1684e-22) (0 1.25767e-21 -9.66655e-08))
3((0 -2.41118e-08 1.6565e-13) (0 8.6512e-08 1.42573e-21) (0 -1.25767e-21 9.66655e-08))
2((0 4.14215e-07 2.58681e-12) (0 2.72685e-12 7.27587e-07))
2((0 1.02513e-15 4.17383e-07) (0 -2.72685e-12 -7.27587e-07))
3((0 -1.02513e-15 -4.17383e-07) (0 0 0) (0 -2.44204e-07 -1.30104e-21))
3((0 -1.79014e-15 7.28857e-07) (0 0 0) (0 -4.74855e-07 2.47198e-21))
1((0 1.79014e-15 -7.28857e-07))
2{(0 0 0)}
3((0 0 0) (0 -1.70106e-06 2.94903e-20) (0 1.59595e-20 1.2276e-06))
3((0 0 0) (0 0 0) (0 -1.59595e-20 -1.2276e-06))
3((0 0 0) (0 -2.08943e-06 1.0842e-20) (0 -2.01228e-20 1.55534e-06))
4((0 0 0) (0 0 0) (0 2.01228e-20 -1.55534e-06) (0 0 0))
2((0 -1.91311e-07 1.19497e-12) (0 0 0))
3((0 1.43806e-07 9.8796e-13) (0 7.01437e-07 -1.249e-20) (0 -5.20417e-20 -4.01739e-06))
3((0 0 0) (0 8.95467e-07 3.1225e-21) (0 5.20417e-20 4.01739e-06))
3((0 4.82738e-15 -1.96547e-06) (0 0 0) (0 1.94564e-06 -6.76542e-21))
1((0 -4.82738e-15 1.96547e-06))
2((0 0 0) (0 -6.62434e-12 -2.30612e-07))
4((0 0 0) (0 0 0) (0 6.62434e-12 2.30612e-07) (0 -2.05565e-20 -1.58181e-06))
3((0 0 0) (0 2.46813e-06 8.58688e-21) (0 2.05565e-20 1.58181e-06))
3((0 0 0) (0 2.02247e-06 -7.02563e-21) (0 8.32667e-21 -6.41609e-07))
3((0 0 0) (0 0 0) (0 -8.32667e-21 6.41609e-07))
0()
3((0 -1.16226e-20 -8.90883e-07) (0 0 0) (0 0 0))
3((0 1.16226e-20 8.90883e-07) (0 0 0) (0 0 0))
3((0 0 0) (0 1.88919e-06 -6.54858e-21) (0 2.29309e-20 -1.76276e-06))
4((0 0 0) (0 0 0) (0 -2.29309e-20 1.76276e-06) (0 4.62315e-12 -1.23276e-06))
2((0 -1.41741e-06 8.85345e-12) (0 -4.62315e-12 1.23276e-06))
3((0 -1.45346e-06 -9.98538e-12) (0 3.77416e-07 -5.55112e-21) (0 1.52656e-20 1.17222e-06))
3((0 -8.22947e-08 1.5421e-13) (0 4.15517e-07 2.77556e-21) (0 -1.52656e-20 -1.17222e-06))
3((0 -1.08841e-07 -2.03955e-13) (0 3.44638e-07 -2.42861e-21) (0 -5.55112e-21 4.26462e-07))
3((0 -3.74029e-07 2.57146e-12) (0 6.07377e-07 8.32667e-21) (0 5.55112e-21 -4.26462e-07))
1((0 1.82009e-09 -4.54863e-15))
2((0 -5.8625e-09 2.5608e-14) (0 1.10589e-21 8.01401e-08))
2((0 -1.65158e-07 -1.85689e-12) (0 -1.10589e-21 -8.01401e-08))
1((0 7.41075e-08 5.09492e-13))
2((0 2.39488e-08 -4.48769e-14) (0 0 0))
2((0 0 0) (0 2.20449e-08 4.13093e-14))
2((0 2.41118e-08 -1.6565e-13) (0 0 0))
2((0 -4.14215e-07 -2.58681e-12) (0 0 0))
0()
2{(0 0 0)}
2{(0 0 0)}
1((0 2.22267e-11 8.89769e-07))
3((0 0 0) (0 0 0) (0 -2.22267e-11 -8.89769e-07))
2{(0 0 0)}
2((0 0 0) (0 0 -3.39283e-07))
2((0 0 3.39283e-07) (0 0 0))
2{(0 0 0)}
3((0 0 0) (0 1.91311e-07 -1.19497e-12) (0 0 0))
2((0 -1.43806e-07 -9.8796e-13) (0 0 0))
2{(0 0 0)}
2{(0 0 0)}
2((0 -1.23353e-11 -1.98235e-06) (0 -7.3068e-07 6.34489e-16))
3((0 0 0) (0 1.23353e-11 1.98235e-06) (0 4.88626e-15 1.95419e-07))
2((0 -4.88626e-15 -1.95419e-07) (0 0 0))
2{(0 0 0)}
2{(0 0 0)}
2{(0 0 0)}
3{(0 0 0)}
2{(0 0 0)}
2{(0 0 0)}
2{(0 0 0)}
2{(0 0 0)}
3((0 0 0) (0 1.41741e-06 -8.85345e-12) (0 0 0))
2((0 1.45346e-06 9.98538e-12) (0 0 0))
2((0 8.22947e-08 -1.5421e-13) (0 0 0))
2((0 0 0) (0 1.08841e-07 2.03955e-13))
1((0 3.74029e-07 -2.57146e-12))
2((0 -3.91053e-08 0) (0 -1.82009e-09 4.54863e-15))
1((0 -8.61328e-08 -5.35184e-17))
0()
2((0 0 -1.25613e-07) (0 3.64815e-09 0))
2((0 0 1.25613e-07) (0 -9.94381e-09 0))
1((0 7.9862e-08 0))
1((0 1.74407e-07 0))
1((0 1.12813e-07 0))
2((0 0 2.4143e-07) (0 2.55138e-07 0))
2((0 0 -2.4143e-07) (0 2.91509e-07 0))
2((0 0 4.87666e-07) (0 1.33853e-07 0))
2((0 0 -4.87666e-07) (0 3.64982e-08 0))
2((0 0 3.70351e-06) (0 5.22375e-07 0))
2((0 0 -3.70351e-06) (0 6.6653e-07 0))
2((0 0 -2.92229e-07) (0 1.01456e-06 0))
2((0 0 2.92229e-07) (0 4.90075e-07 0))
1((0 -1.00624e-07 0))
2((0 0 7.68143e-06) (0 8.78524e-07 0))
2((0 0 -7.68143e-06) (0 -9.25759e-08 0))
1((0 -9.01619e-07 0))
2((0 0 -1.9428e-06) (0 -5.41208e-07 0))
3((0 0 1.9428e-06) (0 -2.39253e-07 0) (0 7.3068e-07 -6.34489e-16))
1((0 -9.76046e-07 0))
1((0 -9.09198e-07 0))
2((0 0 -2.52807e-06) (0 -9.07529e-07 0))
2((0 0 2.52807e-06) (0 -5.37437e-07 0))
1((0 -4.14842e-07 0))
2{(0 0 0)}
2((0 0 -6.96883e-07) (0 -1.0593e-06 0))
2((0 0 6.96883e-07) (0 -1.08597e-06 0))
1((0 -1.10783e-06 0))
1((0 -1.67026e-06 0))
1((0 -1.7659e-06 0))
1((0 -1.25996e-06 0))
2((0 0 7.65929e-06) (0 -7.10218e-07 0))
2((0 0 -7.65929e-06) (0 2.34279e-07 0))
1((0 5.58442e-07 0))
2((0 3.91053e-08 0) (0 0 3.16495e-08))
3((0 8.61328e-08 5.35184e-17) (0 0 5.55568e-08) (0 0 -3.16495e-08))
1((0 0 -5.55568e-08))
2((0 -3.64815e-09 0) (0 0 -4.07605e-08))
2((0 9.94381e-09 0) (0 0 4.07605e-08))
1((0 -7.9862e-08 0))
1((0 -1.74407e-07 0))
1((0 -1.12813e-07 0))
2((0 -2.55138e-07 0) (0 0 3.45476e-07))
2((0 -2.91509e-07 0) (0 0 -3.45476e-07))
2((0 -1.33853e-07 0) (0 0 4.68625e-07))
2((0 -3.64982e-08 0) (0 0 -4.68625e-07))
2((0 -5.22375e-07 0) (0 0 2.95276e-06))
2((0 0 -2.95276e-06) (0 -6.6653e-07 0))
2((0 -1.01456e-06 0) (0 0 -2.59697e-07))
2((0 0 2.59697e-07) (0 -4.90075e-07 0))
1((0 1.00624e-07 0))
2((0 -8.78524e-07 0) (0 0 1.47346e-06))
2((0 9.25759e-08 0) (0 0 -1.47346e-06))
1((0 9.01619e-07 0))
2((0 5.41208e-07 0) (0 0 -2.02255e-06))
2((0 2.39253e-07 0) (0 0 2.02255e-06))
1((0 9.76046e-07 0))
1((0 9.09198e-07 0))
2((0 9.07529e-07 0) (0 0 -2.08355e-06))
2((0 0 2.08355e-06) (0 5.37437e-07 0))
1((0 4.14842e-07 0))
1((0 0 0))
2((0 1.0593e-06 0) (0 0 -7.37597e-07))
2((0 1.08597e-06 0) (0 0 7.37597e-07))
1((0 1.10783e-06 0))
1((0 1.67026e-06 0))
1((0 1.7659e-06 0))
1((0 1.25996e-06 0))
2((0 7.10218e-07 0) (0 0 5.91937e-06))
2((0 0 -5.91937e-06) (0 -2.34279e-07 0))
1((0 -5.58442e-07 0))
2((0 -1.86767e-07 0) (0 1.19907e-17 4.54856e-08))
2((0 -3.82538e-07 0) (0 -1.19907e-17 -4.54856e-08))
0()
2((0 0 -4.42464e-08) (0 -9.43057e-08 0))
2((0 0 4.42464e-08) (0 6.70079e-10 0))
1((0 4.66923e-07 0))
1((0 8.45957e-07 0))
1((0 3.20002e-08 0))
2((0 0 2.79651e-07) (0 2.8345e-07 0))
2((0 0 -2.79651e-07) (0 1.33495e-07 0))
2((0 0 4.7463e-07) (0 -2.13941e-08 0))
2((0 0 -4.7463e-07) (0 -1.47485e-08 0))
2((0 0 1.54907e-06) (0 -1.06124e-06 0))
2((0 0 -1.54907e-06) (0 -1.24951e-08 0))
2((0 0 -8.71477e-07) (0 -7.61383e-08 0))
2((0 0 8.71477e-07) (0 -1.94905e-08 0))
1((0 5.02205e-08 0))
2((0 0 -1.84665e-06) (0 -4.03503e-07 0))
2((0 0 1.84665e-06) (0 -1.3745e-07 2.42861e-21))
1((0 -4.5457e-07 0))
2((0 0 -1.76558e-06) (0 -2.98957e-07 0))
2((0 0 1.76558e-06) (0 -1.04206e-07 0))
1((0 -2.22544e-07 0))
1((0 -1.93561e-07 0))
2((0 0 1.12044e-06) (0 -1.10309e-07 -3.90313e-22))
2((0 0 -1.12044e-06) (0 -8.33177e-08 0))
1((0 -1.70374e-07 0))
1((0 -8.03473e-08 0))
2((0 0 -6.71609e-07) (0 -4.58912e-07 0))
2((0 0 6.71609e-07) (0 -6.63828e-07 0))
1((0 -1.05672e-06 0))
1((0 -1.84675e-06 0))
1((0 -1.47963e-06 0))
1((0 -1.49014e-06 0))
2((0 0 4.12951e-06) (0 -7.61451e-07 0))
2((0 0 -4.12951e-06) (0 4.07705e-07 0))
1((0 9.90428e-07 0))
3((0 1.86767e-07 0) (0 2.05128e-17 7.78134e-08) (0 -2.53751e-08 1.26853e-13))
2((0 3.82538e-07 0) (0 -2.05128e-17 -7.78134e-08))
1((0 3.8905e-08 -2.41742e-17))
2((0 9.43057e-08 0) (0 0 1.25683e-09))
2((0 -6.70079e-10 0) (0 0 -1.25683e-09))
1((0 -4.66923e-07 0))
1((0 -8.45957e-07 0))
1((0 -3.20002e-08 0))
2((0 -2.8345e-07 0) (0 0 2.1822e-07))
2((0 -1.33495e-07 0) (0 0 -2.1822e-07))
2((0 2.13941e-08 0) (0 0 4.28976e-07))
2((0 1.47485e-08 0) (0 0 -4.28976e-07))
2((0 1.06124e-06 0) (0 0 -1.34045e-07))
2((0 1.24951e-08 0) (0 0 1.34045e-07))
2((0 7.61383e-08 0) (0 0 -1.0825e-06))
2((0 0 1.0825e-06) (0 1.94905e-08 0))
1((0 -5.02205e-08 0))
2((0 4.03503e-07 0) (0 1.85168e-07 5.79178e-13))
3((0 1.3745e-07 -2.42861e-21) (0 -1.86412e-07 -1.28106e-12) (0 3.79495e-17 -1.54513e-08))
2((0 4.5457e-07 0) (0 -3.79495e-17 1.54513e-08))
2((0 2.98957e-07 0) (0 0 -1.73105e-06))
2((0 1.04206e-07 0) (0 0 1.73105e-06))
1((0 2.22544e-07 0))
2((0 1.93561e-07 0) (0 9.57461e-17 3.89831e-08))
3((0 1.10309e-07 3.90313e-22) (0 2.66145e-09 -4.98917e-15) (0 -9.57461e-17 -3.89831e-08))
1((0 8.33177e-08 0))
1((0 1.70374e-07 0))
1((0 8.03473e-08 0))
2((0 4.58912e-07 0) (0 0 -5.02012e-07))
2((0 6.63828e-07 0) (0 0 5.02012e-07))
1((0 1.05672e-06 0))
1((0 1.84675e-06 0))
1((0 1.47963e-06 0))
1((0 1.49014e-06 0))
2((0 7.61451e-07 0) (0 0 5.71091e-06))
2((0 0 -5.71091e-06) (0 -4.07705e-07 0))
1((0 -9.90428e-07 0))
2((0 2.53751e-08 -1.26853e-13) (0 0 1.02061e-07))
2((0 -2.13324e-14 1.08569e-06) (0 0 -1.02061e-07))
4((0 2.13324e-14 -1.08569e-06) (0 -3.8905e-08 2.41742e-17) (0 4.3419e-08 2.69783e-17) (0 -2.20589e-15 -1.12266e-07))
3((0 0 9.48449e-08) (0 1.32425e-07 0) (0 2.20589e-15 1.12266e-07))
2((0 0 -9.48449e-08) (0 9.87011e-08 0))
1((0 1.56544e-07 0))
1((0 -3.18167e-07 0))
1((0 8.01258e-07 0))
2((0 0 9.11626e-08) (0 -1.15732e-07 0))
2((0 0 -9.11626e-08) (0 -1.069e-08 0))
2((0 0 3.10152e-07) (0 -3.28778e-08 0))
2((0 0 -3.10152e-07) (0 -1.42238e-08 0))
2((0 0 -3.79044e-07) (0 3.90363e-09 0))
2((0 0 3.79044e-07) (0 -5.76682e-08 0))
2((0 0 -1.06597e-06) (0 -1.40304e-07 0))
2((0 0 1.06597e-06) (0 -1.0844e-07 0))
2((0 -3.51972e-07 0) (0 0 0))
3((0 0 0) (0 0 0) (0 -1.85168e-07 -5.79178e-13))
2((0 1.86412e-07 1.28106e-12) (0 0 0))
1((0 -7.90262e-07 0))
2((0 0 -1.68368e-06) (0 -5.04597e-07 0))
2((0 0 1.68368e-06) (0 -4.20747e-07 0))
1((0 -2.62244e-07 0))
1((0 -1.32599e-07 0))
2((0 -2.66145e-09 4.98917e-15) (0 0 0))
3((0 0 0) (0 -1.22638e-08 -4.9493e-18) (0 2.60209e-22 1.29004e-07))
2((0 1.65938e-08 0) (0 -2.60209e-22 -1.29004e-07))
1((0 -1.97169e-07 0))
2((0 0 -3.6925e-07) (0 -4.53007e-07 0))
2((0 0 3.6925e-07) (0 -1.817e-06 0))
1((0 -1.95536e-06 0))
1((0 -1.329e-06 0))
1((0 -1.52389e-06 0))
1((0 -8.38677e-07 0))
2((0 0 5.2194e-06) (0 2.65881e-08 0))
2((0 0 -5.2194e-06) (0 -2.10043e-07 0))
1((0 -7.67047e-07 0))
0()
0()
1((0 -4.3419e-08 -2.69783e-17))
2((0 -1.32425e-07 0) (0 0 1.32214e-07))
2((0 -9.87011e-08 0) (0 0 -1.32214e-07))
1((0 -1.56544e-07 0))
1((0 3.18167e-07 0))
2((0 -8.01258e-07 0) (0 5.09813e-08 0))
2((0 1.15732e-07 0) (0 0 1.08316e-08))
2((0 1.069e-08 0) (0 0 -1.08316e-08))
2((0 3.28778e-08 0) (0 0 2.21999e-07))
2((0 1.42238e-08 0) (0 0 -2.21999e-07))
2((0 -3.90363e-09 0) (0 0 -2.40561e-07))
2((0 5.76682e-08 0) (0 0 2.40561e-07))
2((0 1.40304e-07 0) (0 0 -1.04929e-06))
2((0 0 1.04929e-06) (0 1.0844e-07 0))
1((0 3.51972e-07 0))
1((0 0 -2.8146e-06))
1((0 0 2.8146e-06))
1((0 7.90262e-07 0))
2((0 5.04597e-07 0) (0 0 -1.28685e-06))
2((0 4.20747e-07 0) (0 0 1.28685e-06))
1((0 2.62244e-07 0))
1((0 1.32599e-07 0))
1((0 0 1.49581e-06))
2((0 0 -1.49581e-06) (0 1.22638e-08 4.9493e-18))
1((0 -1.65938e-08 0))
1((0 1.97169e-07 0))
2((0 4.53007e-07 0) (0 0 -3.04955e-07))
2((0 1.817e-06 0) (0 0 3.04955e-07))
1((0 1.95536e-06 0))
1((0 1.329e-06 0))
1((0 1.52389e-06 0))
1((0 8.38677e-07 0))
2((0 -2.65881e-08 0) (0 0 4.72736e-06))
2((0 0 -4.72736e-06) (0 2.10043e-07 0))
1((0 7.67047e-07 0))
1((0 1.00195e-06 0))
1((0 9.99869e-07 0))
1((0 5.94739e-07 0))
2((0 8.48484e-07 0) (0 0 1.32935e-07))
2((0 0 -1.32935e-07) (0 8.72039e-07 0))
1((0 -1.39385e-06 0))
1((0 -1.39387e-06 0))
2((0 -9.22028e-07 0) (0 -5.09813e-08 0))
2((0 -1.06513e-06 0) (0 0 1.5257e-08))
2((0 0 -1.5257e-08) (0 -1.09147e-06 0))
2((0 -1.66954e-07 0) (0 0 2.04679e-07))
2((0 0 -2.04679e-07) (0 -1.81326e-07 0))
2((0 -1.8007e-07 0) (0 0 5.09759e-08))
2((0 0 -5.09759e-08) (0 -3.8288e-07 0))
2((0 0 -1.14066e-06) (0 -3.95789e-07 0))
2((0 0 1.14066e-06) (0 -1.42017e-06 0))
1((0 -1.42885e-06 0))
2((0 -4.35088e-07 0) (0 0 -1.27905e-06))
2((0 0 1.27905e-06) (0 -2.49277e-06 0))
1((0 -2.5305e-06 0))
2((0 -6.09398e-06 0) (0 0 -1.06976e-06))
2((0 0 1.06976e-06) (0 -5.59504e-06 0))
1((0 -3.86706e-06 0))
1((0 4.4773e-07 0))
2((0 0 1.25354e-06) (0 5.67404e-07 0))
2((0 0 -1.25354e-06) (0 3.94607e-06 0))
1((0 3.66571e-06 0))
1((0 -1.01291e-06 0))
2((0 -1.08686e-06 0) (0 0 -2.16203e-07))
2((0 0 2.16203e-07) (0 -8.25262e-07 0))
1((0 -7.47336e-06 0))
1((0 -7.2945e-06 0))
1((0 -5.23983e-06 0))
1((0 -2.467e-06 0))
2((0 0 3.00765e-06) (0 -2.15459e-06 0))
2((0 0 -3.00765e-06) (0 1.32148e-06 0))
1((0 1.23272e-06 0))
1((0 -1.00195e-06 0))
2((0 -9.99869e-07 0) (0 8.75941e-08 2.18985e-13))
2((0 -5.94739e-07 0) (0 1.84972e-08 0))
3((0 -8.48484e-07 0) (0 0 1.55697e-07) (0 3.36459e-07 0))
3((0 -8.72039e-07 0) (0 0 -1.55697e-07) (0 1.81825e-07 0))
2((0 1.39385e-06 0) (0 -1.1729e-07 0))
2((0 1.39387e-06 0) (0 -2.31863e-07 0))
2((0 9.22028e-07 0) (0 -6.38921e-07 0))
3((0 1.06513e-06 0) (0 0 5.2058e-08) (0 -3.07155e-07 0))
3((0 1.09147e-06 0) (0 0 -5.2058e-08) (0 -1.76786e-07 0))
3((0 1.66954e-07 0) (0 0 2.10062e-07) (0 -8.12246e-08 0))
3((0 1.81326e-07 0) (0 0 -2.10062e-07) (0 -1.52055e-07 -2.64545e-21))
3((0 1.8007e-07 0) (0 0 2.09653e-07) (0 -6.00584e-09 0))
3((0 3.8288e-07 0) (0 0 -2.09653e-07) (0 -2.95558e-07 0))
3((0 3.95789e-07 0) (0 0 -1.17693e-06) (0 -2.49864e-07 0))
3((0 1.42017e-06 0) (0 0 1.17693e-06) (0 -4.63093e-07 0))
2((0 1.42885e-06 0) (0 -7.55547e-07 0))
3((0 4.35088e-07 0) (0 0 4.1751e-07) (0 -4.63376e-07 0))
3((0 0 -4.1751e-07) (0 2.49277e-06 0) (0 -1.14352e-06 1.97758e-20))
2((0 2.5305e-06 0) (0 -1.1185e-06 0))
3((0 6.09398e-06 0) (0 0 -1.3358e-06) (0 -2.96897e-06 0))
3((0 5.59504e-06 0) (0 0 1.3358e-06) (0 -4.50735e-06 0))
2((0 3.86706e-06 0) (0 -4.1825e-07 0))
2((0 -4.4773e-07 0) (0 3.2553e-07 0))
3((0 -5.67404e-07 0) (0 0 2.68072e-06) (0 3.52666e-07 0))
3((0 -3.94607e-06 0) (0 0 -2.68072e-06) (0 1.63962e-06 0))
2((0 -3.66571e-06 0) (0 2.53232e-06 0))
2((0 1.01291e-06 0) (0 -1.90974e-07 0))
3((0 1.08686e-06 0) (0 0 8.51413e-08) (0 -8.48935e-07 0))
3((0 8.25262e-07 0) (0 0 -8.51413e-08) (0 -1.50758e-06 0))
2((0 7.47336e-06 0) (0 -5.64809e-06 0))
2((0 7.2945e-06 0) (0 -9.06388e-06 0))
2((0 5.23983e-06 0) (0 -1.66581e-06 0))
2((0 2.467e-06 0) (0 -2.01099e-06 0))
3((0 2.15459e-06 0) (0 0 1.76793e-06) (0 -2.51912e-07 0))
3((0 -1.32148e-06 0) (0 0 -1.76793e-06) (0 1.92683e-07 0))
2((0 -1.23272e-06 0) (0 1.00767e-06 0))
1((0 1.18504e-16 4.35725e-08))
3((0 6.09954e-08 -2.66835e-13) (0 -8.75941e-08 -2.18985e-13) (0 -1.18504e-16 -4.35725e-08))
1((0 -1.84972e-08 0))
2((0 -3.36459e-07 0) (0 0 1.91156e-07))
2((0 -1.81825e-07 0) (0 0 -1.91156e-07))
1((0 1.1729e-07 0))
1((0 2.31863e-07 0))
1((0 6.38921e-07 0))
2((0 3.07155e-07 0) (0 0 1.11916e-07))
2((0 1.76786e-07 0) (0 0 -1.11916e-07))
2((0 8.12246e-08 0) (0 4.97839e-16 2.02696e-07))
3((0 1.52055e-07 2.64545e-21) (0 -4.97839e-16 -2.02696e-07) (0 -8.54873e-08 5.87487e-13))
3((0 6.00584e-09 0) (0 0 2.24794e-07) (0 -4.16679e-09 1.30331e-14))
2((0 2.95558e-07 0) (0 0 -2.24794e-07))
2((0 2.49864e-07 0) (0 0 -1.05837e-06))
2((0 0 1.05837e-06) (0 4.63093e-07 0))
1((0 7.55547e-07 0))
1((0 4.63376e-07 0))
3((0 1.14352e-06 -1.97758e-20) (0 0 0) (0 6.03657e-16 -2.45781e-07))
2((0 1.1185e-06 0) (0 -6.03657e-16 2.45781e-07))
2((0 2.96897e-06 0) (0 0 -1.07777e-06))
2((0 4.50735e-06 0) (0 0 1.07777e-06))
1((0 4.1825e-07 0))
1((0 -3.2553e-07 0))
2((0 -3.52666e-07 0) (0 0 4.19181e-06))
2((0 0 -4.19181e-06) (0 -1.63962e-06 0))
1((0 -2.53232e-06 0))
1((0 1.90974e-07 0))
2((0 8.48935e-07 0) (0 0 3.89154e-07))
2((0 1.50758e-06 0) (0 0 -3.89154e-07))
1((0 5.64809e-06 0))
1((0 9.06388e-06 0))
1((0 1.66581e-06 0))
1((0 2.01099e-06 0))
2((0 2.51912e-07 0) (0 0 1.42561e-06))
2((0 0 -1.42561e-06) (0 -1.92683e-07 0))
1((0 -1.00767e-06 0))
1((0 2.53603e-09 -6.33785e-15))
2((0 -6.09954e-08 2.66835e-13) (0 0 0))
3((0 0 0) (0 -2.67535e-07 -1.07974e-16) (0 3.46945e-22 8.46655e-08))
3((0 0 2.26302e-07) (0 -1.23404e-07 0) (0 -3.46945e-22 -8.46655e-08))
2((0 0 -2.26302e-07) (0 5.07482e-09 0))
1((0 -1.46883e-08 0))
1((0 5.50175e-08 0))
1((0 -3.94724e-08 0))
2((0 0 1.14885e-07) (0 8.19066e-08 0))
2((0 0 -1.14885e-07) (0 -2.25205e-08 0))
1((0 -3.09348e-08 0))
2((0 8.54873e-08 -5.87487e-13) (0 0 0))
3((0 0 0) (0 -1.43442e-12 2.29515e-07) (0 4.16679e-09 -1.30331e-14))
2((0 1.43442e-12 -2.29515e-07) (0 4.93611e-08 0))
2((0 0 -1.11854e-06) (0 -1.97343e-07 0))
2((0 0 1.11854e-06) (0 -2.06456e-07 0))
2((0 -2.20405e-07 0) (0 2.08167e-21 -1.21248e-07))
3((0 2.96877e-12 4.75187e-07) (0 -5.16984e-07 1.46491e-15) (0 -2.08167e-21 1.21248e-07))
2((0 -2.96877e-12 -4.75187e-07) (0 0 0))
1((0 -1.25462e-06 0))
2((0 0 -3.03002e-07) (0 -1.36852e-06 0))
2((0 0 3.03002e-07) (0 1.41971e-06 0))
1((0 -5.31054e-07 0))
1((0 -2.19444e-07 0))
2((0 0 4.82573e-06) (0 6.01138e-07 0))
2((0 0 -4.82573e-06) (0 1.04377e-06 0))
1((0 -1.12407e-06 0))
1((0 -2.21923e-07 0))
2((0 0 1.17084e-06) (0 -8.84364e-07 0))
2((0 0 -1.17084e-06) (0 -2.59541e-06 0))
1((0 -3.47615e-06 0))
1((0 3.15029e-07 0))
1((0 -3.03493e-06 0))
1((0 -9.98702e-07 0))
2((0 0 5.26601e-07) (0 -6.31407e-07 0))
2((0 0 -5.26601e-07) (0 3.32486e-07 0))
1((0 -5.42398e-07 0))
1((0 -2.53603e-09 6.33785e-15))
0()
1((0 2.67535e-07 1.07974e-16))
2((0 1.23404e-07 0) (0 0 2.34936e-07))
2((0 -5.07482e-09 0) (0 0 -2.34936e-07))
1((0 1.46883e-08 0))
1((0 -5.50175e-08 0))
1((0 3.94724e-08 0))
2((0 -8.19066e-08 0) (0 0 -2.77388e-09))
2((0 2.25205e-08 0) (0 0 2.77388e-09))
2((0 3.09348e-08 0) (0 0 2.73565e-07))
1((0 0 -2.73565e-07))
1((0 0 1.8586e-06))
2((0 0 -1.8586e-06) (0 -4.93611e-08 0))
2((0 1.97343e-07 0) (0 0 -1.17889e-06))
2((0 0 1.17889e-06) (0 2.06456e-07 0))
1((0 2.20405e-07 0))
2((0 5.16984e-07 -1.46491e-15) (0 0 8.28146e-07))
1((0 0 -8.28146e-07))
1((0 1.25462e-06 0))
2((0 1.36852e-06 0) (0 0 -5.76191e-07))
2((0 -1.41971e-06 0) (0 0 5.76191e-07))
1((0 5.31054e-07 0))
1((0 2.19444e-07 0))
2((0 -6.01138e-07 0) (0 0 5.45879e-06))
2((0 0 -5.45879e-06) (0 -1.04377e-06 0))
1((0 1.12407e-06 0))
1((0 2.21923e-07 0))
2((0 8.84364e-07 0) (0 0 1.99874e-06))
2((0 2.59541e-06 0) (0 0 -1.99874e-06))
1((0 3.47615e-06 0))
1((0 -3.15029e-07 0))
1((0 3.03493e-06 0))
1((0 9.98702e-07 0))
2((0 6.31407e-07 0) (0 0 1.75756e-07))
2((0 0 -1.75756e-07) (0 -3.32486e-07 0))
1((0 5.42398e-07 0))
0()
0()
0()
1((0 0 2.23866e-07))
1((0 0 -2.23866e-07))
0()
0()
0()
1((0 0 -1.08413e-07))
1((0 0 1.08413e-07))
1((0 0 3.14865e-07))
1((0 0 -3.14865e-07))
1((0 0 2.07404e-06))
1((0 0 -2.07404e-06))
1((0 0 -1.17182e-06))
1((0 0 1.17182e-06))
0()
1((0 0 1.55755e-06))
1((0 0 -1.55755e-06))
0()
1((0 0 -1.08198e-06))
1((0 0 1.08198e-06))
0()
0()
1((0 0 4.02216e-06))
1((0 0 -4.02216e-06))
0()
0()
1((0 0 2.4466e-06))
1((0 0 -2.4466e-06))
0()
0()
0()
0()
1((0 0 -5.10902e-07))
1((0 0 5.10902e-07))
0()
1((0 -2.5695e-07 -1.59655e-16))
1((0 -5.15766e-07 -1.28909e-12))
1((0 2.20171e-07 1.73472e-21))
2((0 0 2.47227e-07) (0 -2.91689e-07 4.85723e-21))
2((0 0 -2.47227e-07) (0 -1.80798e-07 -8.67362e-22))
1((0 3.20015e-07 -1.38778e-21))
1((0 6.81902e-07 1.12757e-20))
0()
2((0 0 -1.39785e-07) (0 2.96001e-07 0))
2((0 0 1.39785e-07) (0 1.27021e-07 0))
2((0 0 3.10858e-07) (0 3.40933e-08 -1.73472e-22))
2((0 0 -3.10858e-07) (0 1.15079e-07 1.99493e-21))
1((0 0 5.46771e-07))
2((0 0 -5.46771e-07) (0 2.65055e-07 0))
2((0 0 -2.18381e-06) (0 2.87029e-07 0))
2((0 0 2.18381e-06) (0 2.22009e-08 -1.73472e-22))
1((0 -1.54714e-07 0))
1((0 0 4.32273e-06))
2((0 0 -4.32273e-06) (0 4.45718e-07 -7.63278e-21))
1((0 3.98951e-07 1.38778e-21))
2((0 0 -1.09701e-06) (0 -1.07708e-06 3.81639e-21))
2((0 0 1.09701e-06) (0 -2.0338e-06 -3.53884e-20))
0()
1((0 1.92146e-06 -3.33067e-20))
2((0 0 0) (0 1.42968e-06 4.85723e-21))
2((0 0 0) (0 8.54491e-07 -3.1225e-21))
1((0 1.17042e-06 2.04697e-20))
0()
2((0 0 2.74209e-06) (0 -2.39333e-06 4.16334e-20))
2((0 0 -2.74209e-06) (0 -1.53244e-06 -5.55112e-21))
1((0 -4.10122e-06 0))
1((0 -9.10829e-06 0))
0()
1((0 -4.03615e-06 0))
2((0 0 -3.0389e-06) (0 -1.71353e-06 0))
2((0 0 3.0389e-06) (0 2.0589e-06 -1.38778e-20))
1((0 4.19284e-06 5.82867e-20))
2((0 2.5695e-07 1.59655e-16) (0 5.89373e-16 2.39963e-07))
3((0 -5.89373e-16 -2.39963e-07) (0 -1.81279e-07 7.92995e-13) (0 5.15766e-07 1.28909e-12))
2((0 -2.20171e-07 -1.73472e-21) (0 8.71405e-07 -2.71883e-12))
3((0 2.91689e-07 -4.85723e-21) (0 -2.08167e-21 -1.52685e-07) (0 1.34437e-08 9.23592e-14))
3((0 1.80798e-07 8.67362e-22) (0 2.08167e-21 1.52685e-07) (0 -1.01271e-07 1.89769e-13))
3((0 -3.20015e-07 1.38778e-21) (0 -5.76503e-08 -1.08029e-13) (0 3.57787e-21 -2.57647e-07))
4((0 -6.81902e-07 -1.12757e-20) (0 2.30484e-07 -1.58432e-12) (0 -3.57787e-21 2.57647e-07) (0 4.32948e-12 -1.15445e-06))
2((0 -7.04481e-07 4.40324e-12) (0 -4.32948e-12 1.15445e-06))
2((0 -2.96001e-07 0) (0 0 -7.36078e-08))
2((0 -1.27021e-07 0) (0 0 7.36078e-08))
3((0 -3.40933e-08 1.73472e-22) (0 -4.16334e-21 2.9725e-07) (0 -5.05866e-08 -9.48301e-14))
4((0 -1.15079e-07 -1.99493e-21) (0 4.16334e-21 -2.9725e-07) (0 1.35285e-07 -9.29937e-13) (0 -2.27521e-12 6.0668e-07))
2((0 -1.17369e-06 7.33595e-12) (0 2.27521e-12 -6.0668e-07))
1((0 -2.65055e-07 0))
1((0 -2.87029e-07 0))
3((0 -2.22009e-08 1.73472e-22) (0 1.92691e-07 3.6122e-13) (0 -1.36236e-15 5.54687e-07))
3((0 1.54714e-07 0) (0 1.36236e-15 -5.54687e-07) (0 0 0))
2((0 -2.07964e-06 1.29876e-11) (0 0 0))
3((0 -4.45718e-07 7.63278e-21) (0 3.6014e-07 2.47419e-12) (0 1.17961e-20 8.58769e-07))
3((0 -3.98951e-07 -1.38778e-21) (0 3.25843e-07 -6.10588e-13) (0 -1.17961e-20 -8.58769e-07))
3((0 1.07708e-06 -3.81639e-21) (0 6.93889e-21 -4.94595e-07) (0 1.60647e-07 3.01031e-13))
3((0 2.0338e-06 3.53884e-20) (0 -6.93889e-21 4.94595e-07) (0 -1.38968e-06 9.54722e-12))
2((0 0 0) (0 4.12319e-12 1.09944e-06))