/*--------------------------------*- C++ -*----------------------------------*\
| =========                 |                                                 |
| \\      /  F ield         | OpenFOAM: The Open Source CFD Toolbox           |
|  \\    /   O peration     | Version:  2.2.x                                 |
|   \\  /    A nd           | Web:      www.OpenFOAM.org                      |
|    \\/     M anipulation  |                                                 |
\*---------------------------------------------------------------------------*/
FoamFile
{
    version     2.0;
    format      ascii;
    class       vectorField;
    location    "0.0002";
    object      torque;
}
// * * * * * * * * * * * * * * * * * * * * * * * * * * * * * * * * * * * * * //


2405
(
(-3.67998e-08 -7.69834e-24 -7.6415e-24)
(-3.99398e-08 0 0)
(4.52034e-08 0 0)
(1.1524e-07 0 0)
(5.58322e-08 0 0)
(2.78034e-08 0 0)
(2.95016e-08 0 0)
(-2.95201e-08 0 0)
(-3.62216e-08 0 0)
(-3.5661e-08 0 0)
(-3.6128e-08 0 0)
(-4.43388e-08 0 0)
(-3.83687e-08 0 0)
(-8.37697e-08 0 0)
(-3.99883e-08 2.31642e-47 -3.72805e-38)
(-1.39327e-07 -2.82382e-24 -2.23624e-23)
(-9.82232e-08 0 0)
(-6.18731e-08 0 0)
(-7.28658e-08 0 0)
(1.37886e-07 0 0)
(7.70627e-08 -6.54713e-25 9.51066e-24)
(2.03637e-07 0 0)
(6.48109e-08 0 0)
(1.56525e-08 0 0)
(6.00203e-08 0 0)
(9.21071e-09 0 0)
(2.7557e-08 0 0)
(4.60035e-11 0 0)
(-7.61334e-09 0 0)
(-1.46878e-08 0 0)
(5.24504e-08 4.48234e-25 7.0822e-24)
(4.13398e-08 0 0)
(4.64549e-08 0 0)
(7.72294e-08 0 0)
(5.74917e-08 0 0)
(-3.73528e-08 0 0)
(-5.42226e-08 0 0)
(-6.47054e-08 8.56871e-27 2.14142e-32)
(-1.36838e-08 0 0)
(-2.41497e-10 0 0)
(1.84268e-08 0 0)
(-1.21464e-09 0 0)
(1.34743e-09 0 0)
(8.94466e-09 0 0)
(-3.53033e-09 0 0)
(-8.78085e-09 0 0)
(8.84303e-09 0 0)
(4.2805e-09 0 0)
(-1.89774e-09 0 0)
(1.4576e-08 0 0)
(5.34981e-09 0 0)
(6.73895e-08 0 0)
(-3.61784e-08 8.57158e-27 0)
(-3.06492e-08 0 0)
(3.58031e-08 0 0)
(-2.33283e-08 0 0)
(-7.2104e-09 0 0)
(-3.20693e-08 8.5979e-27 -2.983e-41)
(2.38397e-07 0 0)
(-1.31262e-08 0 0)
(-6.81416e-08 0 0)
(-1.30525e-08 0 0)
(-1.36656e-08 0 0)
(4.9992e-09 0 0)
(-1.1989e-09 0 0)
(-1.87219e-08 0 0)
(-2.31024e-08 0 0)
(1.44132e-08 1.76481e-26 -6.12294e-41)
(4.64298e-08 0 0)
(-3.86526e-08 0 0)
(1.864e-08 0 0)
(1.62359e-08 0 0)
(-1.22949e-08 0 0)
(-3.42789e-08 0 0)
(-8.44396e-08 -1.83423e-23 -1.52407e-23)
(-6.7698e-09 0 0)
(-1.06318e-08 0 0)
(-1.88827e-09 0 0)
(-1.4301e-09 0 0)
(1.33424e-10 0 0)
(2.46977e-09 0 0)
(-2.69153e-08 0 0)
(-2.84585e-08 0 0)
(-2.57316e-09 0 0)
(-1.26941e-08 0 0)
(-1.74606e-09 0 0)
(7.32748e-09 0 0)
(0 0 0)
(-2.2666e-08 0 0)
(-4.32405e-08 0 0)
(1.79264e-07 0 0)
(-1.16172e-07 0 0)
(-3.02117e-07 0 0)
(8.994e-08 0 0)
(3.63942e-08 0 0)
(3.21855e-07 0 0)
(1.93365e-07 0 0)
(-1.89082e-08 0 0)
(6.20056e-08 0 0)
(6.79177e-08 0 0)
(2.92971e-08 0 0)
(8.13478e-08 0 0)
(5.06155e-08 0 0)
(3.15777e-08 0 0)
(2.63847e-08 0 0)
(7.04569e-08 0 0)
(5.88088e-08 0 0)
(5.34358e-08 0 0)
(-4.40928e-08 0 0)
(-6.44892e-08 0 0)
(-2.16677e-08 0 0)
(1.48239e-10 -5.28172e-30 2.63955e-35)
(0 0 0)
(0 0 0)
(4.6763e-11 0 0)
(4.6763e-11 0 0)
(0 0 0)
(0 0 0)
(0 0 0)
(-3.46819e-11 0 0)
(-3.46819e-11 0 0)
(-4.53214e-11 0 0)
(-7.99308e-11 0 0)
(-4.40168e-10 0 0)
(-4.40168e-10 0 0)
(-1.4226e-10 0 0)
(2.0269e-10 0 0)
(0 0 0)
(-7.50096e-11 0 0)
(-6.98556e-10 0 0)
(0 0 0)
(-4.96038e-11 0 0)
(-4.96038e-11 0 0)
(-3.08439e-08 0 0)
(0 0 0)
(3.35281e-10 0 0)
(8.11247e-11 0 0)
(-4.92752e-10 0 0)
(0 0 0)
(1.52492e-10 0 0)
(-8.26857e-11 0 0)
(0 0 0)
(0 0 0)
(0 0 0)
(0 0 0)
(-3.4637e-10 0 0)
(-3.4637e-10 0 0)
(0 0 0)
(-3.13822e-10 0 0)
(-5.85135e-10 0 0)
(-2.71313e-10 0 0)
(1.61537e-11 0 0)
(1.61537e-11 0 0)
(0 0 0)
(0 0 0)
(0 0 0)
(-4.78634e-11 0 0)
(-4.78634e-11 0 0)
(-8.14379e-11 0 0)
(-8.14379e-11 0 0)
(-3.68181e-10 0 0)
(-3.68181e-10 0 0)
(-9.84466e-11 0 0)
(-9.84466e-11 0 0)
(0 0 0)
(6.23546e-10 0 0)
(0 0 0)
(0 0 0)
(2.46609e-10 0 0)
(2.46609e-10 0 0)
(-1.8633e-08 0 0)
(0 0 0)
(3.41758e-10 0 0)
(3.41758e-10 0 0)
(0 0 0)
(0 0 0)
(1.76096e-10 0 0)
(1.76096e-10 0 0)
(0 0 0)
(0 0 0)
(0 0 0)
(0 0 0)
(-3.24326e-10 0 0)
(-3.24326e-10 0 0)
(0 0 0)
(0 0 0)
(1.55959e-10 0 0)
(0 0 0)
(-3.61645e-10 0 0)
(-1.77522e-10 0 0)
(-2.14181e-10 0 0)
(-3.86436e-10 0 0)
(0 0 0)
(-5.73885e-11 0 0)
(1.03343e-09 0 0)
(2.03657e-09 0 0)
(-8.45358e-11 0 0)
(-2.8391e-10 0 0)
(7.25071e-09 0 0)
(1.7355e-11 0 0)
(9.32086e-09 0 0)
(3.69046e-10 0 0)
(-1.70354e-10 0 0)
(-3.30356e-09 0 0)
(-3.99992e-09 0 0)
(-8.42229e-09 0 0)
(2.68593e-10 0 0)
(0 0 0)
(-2.95191e-10 0 0)
(-1.06069e-08 0 0)
(-8.61618e-09 0 0)
(-1.46182e-10 0 0)
(0 0 0)
(1.4272e-10 0 0)
(-1.89196e-10 0 0)
(-8.43873e-09 0 0)
(-1.77417e-10 0 0)
(0 0 0)
(-1.68586e-09 0 0)
(-2.73142e-09 0 0)
(-2.41482e-09 0 0)
(-2.71306e-09 0 0)
(-2.10407e-11 0 0)
(3.66907e-10 0 0)
(6.41384e-09 0 0)
(-4.40565e-09 0 0)
(-1.08767e-09 0 0)
(-1.06413e-09 0 0)
(-1.31818e-09 0 0)
(-4.35915e-09 0 0)
(-2.33978e-08 0 0)
(3.84667e-09 0 0)
(4.11958e-09 0 0)
(-1.24064e-10 0 0)
(1.02328e-09 0 0)
(1.04161e-08 0 0)
(3.06622e-09 0 0)
(1.20541e-08 0 0)
(-2.33728e-09 0 0)
(-1.43319e-08 0 0)
(3.47864e-09 0 0)
(-1.40119e-08 0 0)
(-1.64001e-08 0 0)
(3.34557e-10 0 0)
(-6.0836e-09 0 0)
(2.18225e-09 0 0)
(-1.59146e-08 0 0)
(-1.19238e-08 0 0)
(-7.8234e-10 0 0)
(0 0 0)
(-1.72935e-09 0 0)
(-4.37962e-09 0 0)
(-1.37079e-08 0 0)
(3.95908e-08 0 0)
(-2.53826e-08 0 0)
(-5.94704e-08 0 0)
(-5.38138e-09 0 0)
(-5.94427e-09 0 0)
(-1.76118e-08 0 0)
(-7.92762e-10 0 0)
(-3.7037e-09 0 0)
(3.62715e-09 0 0)
(-2.93255e-09 0 0)
(2.1956e-09 0 0)
(2.27094e-09 0 0)
(-2.11823e-09 0 0)
(1.78035e-08 0 0)
(0 0 0)
(4.8421e-09 0 0)
(4.13774e-09 0 0)
(-4.00172e-09 0 0)
(-1.94772e-08 0 0)
(-1.33298e-08 0 0)
(1.48138e-08 0 0)
(1.45749e-08 0 0)
(-1.48037e-08 0 0)
(-5.44207e-08 0 0)
(-2.19367e-08 0 0)
(-7.15002e-09 0 0)
(-4.26063e-09 0 0)
(6.3437e-08 0 0)
(4.34562e-08 0 0)
(-1.18968e-08 0 0)
(3.63328e-09 0 0)
(5.84892e-09 0 0)
(1.34425e-08 0 0)
(1.6331e-08 0 0)
(1.74408e-09 0 0)
(-3.42301e-09 0 0)
(-4.83685e-09 0 0)
(1.24908e-08 0 0)
(-4.80757e-08 0 0)
(-5.33167e-08 0 0)
(-2.36412e-08 0 0)
(-2.46917e-08 0 0)
(-1.48009e-08 0 0)
(4.6917e-13 0 0)
(-9.00777e-12 0 0)
(0 0 0)
(1.14263e-11 0 0)
(1.00048e-11 0 0)
(8.35197e-12 0 0)
(1.82395e-11 0 0)
(1.1798e-11 0 0)
(1.43365e-12 0 0)
(5.23731e-12 0 0)
(-3.70018e-11 0 0)
(-4.71832e-11 0 0)
(-3.32683e-10 0 0)
(-3.17607e-10 0 0)
(1.36664e-10 0 0)
(8.18134e-11 0 0)
(-1.05232e-11 0 0)
(-9.65703e-10 0 0)
(-1.06726e-09 0 0)
(-9.42914e-11 0 0)
(2.10885e-10 0 0)
(1.28139e-10 0 0)
(-1.02075e-10 0 0)
(-9.5084e-11 0 0)
(2.53155e-10 0 0)
(2.91859e-10 0 0)
(-4.33842e-11 0 0)
(-1.70054e-09 0 0)
(-1.48346e-11 0 0)
(-1.76235e-11 0 0)
(-1.15856e-10 0 0)
(-1.74675e-10 0 0)
(-1.84678e-10 0 0)
(-1.31766e-10 0 0)
(-1.37802e-09 0 0)
(-1.27924e-09 0 0)
(5.84018e-11 0 0)
(-1.0317e-10 0 0)
(-1.77394e-09 0 0)
(-1.66585e-09 0 0)
(3.96546e-12 0 0)
(2.54401e-12 0 0)
(8.35197e-12 0 0)
(1.82395e-11 0 0)
(1.1798e-11 0 0)
(-9.44747e-12 0 0)
(-5.64382e-12 0 0)
(-3.50104e-11 0 0)
(-4.51918e-11 0 0)
(-2.5417e-10 0 0)
(-2.39094e-10 0 0)
(1.33262e-10 0 0)
(7.84111e-11 0 0)
(-1.05232e-11 0 0)
(-1.1099e-10 0 0)
(-2.12548e-10 0 0)
(-9.42914e-11 0 0)
(2.21865e-10 0 0)
(2.53444e-10 0 0)
(-1.02075e-10 0 0)
(-9.5084e-11 0 0)
(1.91954e-10 0 0)
(2.30658e-10 0 0)
(-4.33842e-11 0 0)
(-1.39341e-10 0 0)
(-9.22914e-12 0 0)
(-1.20181e-11 0 0)
(-1.15856e-10 0 0)
(-1.74675e-10 0 0)
(-1.84678e-10 0 0)
(-1.31766e-10 0 0)
(-1.08185e-09 0 0)
(-9.83077e-10 0 0)
(5.84018e-11 0 0)
(-1.10594e-08 0 0)
(-1.95698e-10 0 0)
(0 0 0)
(-5.97206e-12 0 0)
(3.96051e-12 0 0)
(4.88308e-11 0 0)
(8.84702e-11 0 0)
(1.96164e-09 0 0)
(3.97353e-13 0 0)
(-1.5285e-11 0 0)
(-5.18742e-11 0 0)
(-5.11792e-11 0 0)
(-2.72986e-10 0 0)
(-1.63309e-10 0 0)
(8.31765e-11 0 0)
(8.91007e-11 0 0)
(5.25206e-12 0 0)
(2.12049e-10 0 0)
(-3.59721e-10 0 0)
(-4.75389e-11 0 0)
(2.1182e-10 0 0)
(2.32187e-10 0 0)
(-2.32737e-11 0 0)
(-2.02426e-11 0 0)
(-6.46997e-10 0 0)
(-1.62975e-10 0 0)
(-1.78177e-11 0 0)
(-8.40273e-12 0 0)
(4.4474e-11 0 0)
(2.3044e-11 0 0)
(-1.10511e-10 0 0)
(-1.93134e-10 0 0)
(-1.5474e-10 0 0)
(-1.55839e-10 0 0)
(-7.82546e-10 0 0)
(-6.60276e-10 0 0)
(1.03579e-10 0 0)
(-1.35139e-08 0 0)
(-3.06352e-10 0 0)
(2.38491e-09 0 0)
(-9.973e-12 0 0)
(-4.04315e-14 0 0)
(4.88308e-11 0 0)
(8.84702e-11 0 0)
(1.96164e-09 0 0)
(6.82173e-12 0 0)
(-8.86059e-12 0 0)
(-4.70998e-11 0 0)
(-4.64048e-11 0 0)
(-9.69658e-11 0 0)
(1.27117e-11 0 0)
(1.05246e-10 0 0)
(1.1117e-10 0 0)
(5.25206e-12 0 0)
(7.28688e-09 0 0)
(-7.98719e-09 0 0)
(-4.41615e-11 0 0)
(2.07066e-10 0 0)
(2.27433e-10 0 0)
(-2.32737e-11 0 0)
(-2.56098e-11 0 0)
(-3.92785e-10 0 0)
(-8.71336e-12 0 0)
(-1.78177e-11 0 0)
(-8.40273e-12 0 0)
(2.11239e-11 0 0)
(-3.06122e-13 0 0)
(-1.10511e-10 0 0)
(-1.93134e-10 0 0)
(-1.5474e-10 0 0)
(-1.55839e-10 0 0)
(-1.05173e-09 0 0)
(-9.29457e-10 0 0)
(1.03579e-10 0 0)
(-3.8247e-10 0 0)
(-3.28735e-08 0 0)
(-2.94824e-08 0 0)
(3.56963e-10 0 0)
(1.98278e-12 0 0)
(1.63714e-11 0 0)
(-3.32739e-11 0 0)
(4.91177e-08 0 0)
(-2.1637e-11 0 0)
(-1.06518e-11 0 0)
(-3.5874e-11 0 0)
(-3.39232e-11 0 0)
(4.00487e-11 0 0)
(3.36095e-11 0 0)
(9.68064e-11 0 0)
(1.00139e-10 0 0)
(-3.45096e-09 0 0)
(9.38858e-09 0 0)
(-1.90295e-09 0 0)
(-8.26457e-11 0 0)
(1.79038e-10 0 0)
(1.87807e-10 0 0)
(-2.74255e-11 0 0)
(-1.38672e-11 0 0)
(-5.20449e-09 0 0)
(-5.67297e-09 0 0)
(-3.59734e-10 0 0)
(-2.06199e-11 0 0)
(3.46279e-12 0 0)
(-1.39183e-10 0 0)
(-2.04492e-10 0 0)
(-1.38987e-10 0 0)
(-1.59369e-10 0 0)
(-8.77088e-11 0 0)
(-8.85651e-10 0 0)
(-9.10398e-10 0 0)
(-8.02178e-11 0 0)
(0 0 0)
(0 0 0)
(3.35201e-10 0 0)
(2.22386e-12 0 0)
(-1.30299e-12 0 0)
(1.63714e-11 0 0)
(-3.32739e-11 0 0)
(4.95113e-08 0 0)
(-1.3236e-11 0 0)
(-2.25074e-12 0 0)
(-2.6655e-11 0 0)
(-2.47042e-11 0 0)
(2.55661e-11 0 0)
(1.9127e-11 0 0)
(9.50623e-11 0 0)
(9.83946e-11 0 0)
(-3.68093e-11 0 0)
(3.87514e-10 0 0)
(3.87514e-10 0 0)
(-8.26457e-11 0 0)
(1.24403e-10 0 0)
(1.33172e-10 0 0)
(-2.74255e-11 0 0)
(-1.38672e-11 0 0)
(-2.05943e-10 0 0)
(-2.07632e-10 0 0)
(1.73538e-12 0 0)
(-2.06199e-11 0 0)
(-5.38925e-12 0 0)
(-1.48035e-10 0 0)
(-2.04492e-10 0 0)
(-1.38987e-10 0 0)
(-1.59369e-10 0 0)
(-8.77088e-11 0 0)
(-8.01897e-10 0 0)
(-8.26644e-10 0 0)
(-8.02178e-11 0 0)
(1.04783e-10 0 0)
(1.04566e-10 0 0)
(6.21978e-11 0 0)
(7.70459e-11 0 0)
(7.95093e-11 0 0)
(-1.45769e-10 0 0)
(-1.45771e-10 0 0)
(2.97157e-10 0 0)
(-1.12987e-10 0 0)
(-1.15741e-10 0 0)
(-3.88654e-11 0 0)
(-4.03685e-11 0 0)
(-2.41628e-11 0 0)
(-4.53727e-11 0 0)
(7.78987e-11 0 0)
(-2.9231e-11 0 0)
(-1.49429e-10 0 0)
(1.30597e-10 0 0)
(-8.45952e-11 0 0)
(-2.64639e-10 0 0)
(-4.90025e-10 0 0)
(-4.37845e-10 0 0)
(-4.04417e-10 0 0)
(4.68236e-11 0 0)
(-1.13248e-10 0 0)
(2.40093e-10 0 0)
(3.8336e-10 0 0)
(-1.0593e-10 0 0)
(-8.3897e-11 0 0)
(-5.65391e-11 0 0)
(-7.81564e-10 0 0)
(-7.62859e-10 0 0)
(-5.47982e-10 0 0)
(-2.57999e-10 0 0)
(-7.37282e-10 0 0)
(-3.73754e-10 0 0)
(1.28918e-10 0 0)
(1.04783e-10 0 0)
(4.95707e-10 0 0)
(6.41322e-11 0 0)
(1.10231e-10 0 0)
(9.65232e-11 0 0)
(-1.58035e-10 0 0)
(-1.70019e-10 0 0)
(-1.63244e-10 0 0)
(-1.48958e-10 0 0)
(-1.38078e-10 0 0)
(-4.79228e-11 0 0)
(-7.2014e-10 0 0)
(-4.13853e-11 0 0)
(-9.28765e-11 0 0)
(5.55607e-11 0 0)
(-7.38685e-11 0 0)
(-2.28445e-10 0 0)
(-1.51444e-10 0 0)
(-5.42608e-09 0 0)
(-3.81612e-10 0 0)
(-7.63891e-10 0 0)
(-8.72595e-10 0 0)
(-4.48158e-10 0 0)
(8.08675e-11 0 0)
(-2.72859e-10 0 0)
(2.15071e-10 0 0)
(6.4819e-10 0 0)
(-1.25902e-10 0 0)
(-2.14168e-10 0 0)
(-2.55691e-10 0 0)
(-1.37224e-09 0 0)
(-1.71076e-09 0 0)
(-7.22193e-10 0 0)
(-4.68308e-10 0 0)
(-5.52604e-10 0 0)
(-1.4258e-10 0 0)
(2.343e-10 0 0)
(-1.60657e-09 0 0)
(2.65568e-09 0 0)
(1.93443e-12 0 0)
(1.83792e-11 0 0)
(2.20759e-12 0 0)
(-1.22662e-11 0 0)
(-2.42483e-11 0 0)
(-6.68183e-11 0 0)
(-4.38264e-11 0 0)
(-3.01924e-11 0 0)
(-5.39262e-11 0 0)
(-4.10751e-09 0 0)
(-1.89062e-10 0 0)
(-5.44183e-11 0 0)
(8.45539e-11 0 0)
(6.22544e-11 0 0)
(-7.90152e-11 0 0)
(-4.84598e-11 0 0)
(-1.3206e-08 0 0)
(-6.32481e-11 0 0)
(-1.62108e-10 0 0)
(-3.22992e-10 0 0)
(-4.37406e-11 0 0)
(3.40439e-11 0 0)
(-5.40246e-10 0 0)
(-4.05656e-10 0 0)
(2.6483e-10 0 0)
(-1.99721e-11 0 0)
(-1.4236e-10 0 0)
(-2.11241e-10 0 0)
(-5.90678e-10 0 0)
(-9.47901e-10 0 0)
(-1.74211e-10 0 0)
(-2.10309e-10 0 0)
(-2.69008e-10 0 0)
(-2.22512e-10 0 0)
(1.05382e-10 0 0)
(-1.48198e-09 0 0)
(2.03571e-09 0 0)
(-6.60754e-10 0 0)
(-2.74124e-10 0 0)
(-1.91993e-11 0 0)
(-2.02229e-12 0 0)
(7.5748e-12 0 0)
(-5.43455e-12 0 0)
(-7.37786e-13 0 0)
(-1.51153e-11 0 0)
(-4.2591e-12 0 0)
(-1.46432e-08 0 0)
(-1.87857e-08 0 0)
(-7.35357e-09 0 0)
(8.9807e-11 0 0)
(8.85523e-11 0 0)
(5.31785e-10 0 0)
(-1.89208e-08 0 0)
(-2.75162e-08 0 0)
(-1.72736e-10 0 0)
(-1.46701e-10 0 0)
(2.37182e-10 0 0)
(-7.31154e-11 0 0)
(-3.0213e-11 0 0)
(-5.81641e-10 0 0)
(-5.207e-10 0 0)
(-1.54762e-10 0 0)
(-3.05543e-11 0 0)
(-2.8296e-10 0 0)
(-5.18536e-10 0 0)
(-4.78596e-10 0 0)
(4.33732e-11 0 0)
(-4.17849e-10 0 0)
(-1.37501e-10 0 0)
(-1.76569e-10 0 0)
(-4.38598e-11 0 0)
(-7.46772e-11 0 0)
(6.35204e-12 0 0)
(0 0 0)
(-4.5539e-11 0 0)
(-3.76473e-11 0 0)
(-1.99584e-11 0 0)
(-2.02229e-12 0 0)
(7.5748e-12 0 0)
(-5.43455e-12 0 0)
(1.1567e-11 0 0)
(-2.81053e-12 0 0)
(-3.28686e-11 0 0)
(-2.86095e-11 0 0)
(-1.94372e-10 0 0)
(-1.87576e-10 0 0)
(9.61181e-11 0 0)
(9.48634e-11 0 0)
(-3.03454e-11 0 0)
(-2.32566e-10 0 0)
(-1.14019e-10 0 0)
(-1.72736e-10 0 0)
(-1.09088e-10 0 0)
(2.74795e-10 0 0)
(-7.31154e-11 0 0)
(-3.0213e-11 0 0)
(-6.68801e-10 0 0)
(-6.07859e-10 0 0)
(-1.54762e-10 0 0)
(-3.05543e-11 0 0)
(-3.96945e-10 0 0)
(-6.32522e-10 0 0)
(-4.78596e-10 0 0)
(4.33732e-11 0 0)
(-4.17849e-10 0 0)
(-1.37501e-10 0 0)
(-1.16849e-10 0 0)
(1.58599e-11 0 0)
(-7.46772e-11 0 0)
(0 0 0)
(0 0 0)
(0 0 0)
(-1.96838e-11 0 0)
(-1.96838e-11 0 0)
(0 0 0)
(0 0 0)
(0 0 0)
(1.13378e-11 0 0)
(1.13378e-11 0 0)
(-3.29286e-11 0 0)
(-3.29286e-11 0 0)
(-2.16903e-10 0 0)
(-2.16903e-10 0 0)
(1.22549e-10 0 0)
(1.22549e-10 0 0)
(0 0 0)
(-2.14443e-10 0 0)
(-2.14443e-10 0 0)
(0 0 0)
(1.48967e-10 0 0)
(1.48967e-10 0 0)
(0 0 0)
(0 0 0)
(-5.5377e-10 0 0)
(-5.5377e-10 0 0)
(0 0 0)
(0 0 0)
(-3.36848e-10 0 0)
(-3.36848e-10 0 0)
(0 0 0)
(0 0 0)
(0 0 0)
(0 0 0)
(8.69644e-11 0 0)
(8.69644e-11 0 0)
(0 0 0)
(-3.53768e-11 0 0)
(-2.30309e-09 0 0)
(9.8347e-10 0 0)
(-1.32467e-09 0 0)
(-8.29336e-10 0 0)
(1.42946e-09 0 0)
(3.04595e-09 0 0)
(0 0 0)
(5.53721e-11 0 0)
(3.21069e-11 0 0)
(1.1978e-10 0 0)
(4.8153e-10 0 0)
(-5.71814e-11 0 0)
(-2.06886e-11 0 0)
(2.67901e-10 0 0)
(3.27551e-10 0 0)
(-2.1301e-11 0 0)
(-5.95153e-10 0 0)
(1.3958e-09 0 0)
(1.78206e-09 0 0)
(-4.66012e-09 0 0)
(-8.93366e-09 0 0)
(0 0 0)
(8.58288e-09 0 0)
(6.3863e-09 0 0)
(3.81701e-09 0 0)
(5.22807e-09 0 0)
(0 0 0)
(-1.10682e-08 0 0)
(-7.22273e-09 0 0)
(-5.64655e-10 0 0)
(-1.25403e-09 0 0)
(0 0 0)
(-5.55696e-10 0 0)
(2.81354e-10 0 0)
(9.71408e-09 0 0)
(1.87288e-08 0 0)
(-5.7146e-08 0 0)
(-1.66718e-08 0 0)
(3.54664e-08 0 0)
(-7.35191e-10 0 0)
(-4.77932e-09 0 0)
(-7.92142e-10 0 0)
(4.92385e-08 0 0)
(4.75282e-09 0 0)
(4.84513e-11 0 0)
(2.51861e-11 0 0)
(-1.92046e-09 0 0)
(-1.36539e-08 0 0)
(-7.31956e-08 0 0)
(3.64928e-11 0 0)
(3.95181e-11 0 0)
(7.63748e-09 0 0)
(-2.84726e-09 0 0)
(-9.79695e-08 0 0)
(1.60454e-08 0 0)
(1.44793e-08 0 0)
(1.66395e-09 0 0)
(-6.39586e-08 0 0)
(-4.61499e-08 0 0)
(3.51139e-08 0 0)
(1.81599e-08 0 0)
(1.52193e-08 0 0)
(1.99285e-08 0 0)
(-2.38343e-08 0 0)
(-7.58274e-08 0 0)
(-6.25925e-11 0 0)
(-5.64655e-10 0 0)
(-1.25403e-09 0 0)
(-9.89627e-08 0 0)
(-4.17771e-08 0 0)
(-2.35919e-10 0 0)
(3.72517e-08 0 0)
(1.57733e-07 0 0)
(0 0 0)
(-7.17349e-09 0 0)
(2.59853e-08 0 0)
(-7.96564e-09 0 0)
(9.29398e-09 0 0)
(1.10201e-08 0 0)
(2.98638e-08 0 0)
(6.72055e-09 0 0)
(1.81614e-08 0 0)
(-9.22035e-09 0 0)
(-1.11976e-08 0 0)
(-9.38196e-09 0 0)
(-8.18722e-08 0 0)
(-1.77753e-08 0 0)
(-2.24631e-09 0 0)
(9.75381e-09 0 0)
(0 0 0)
(-1.34128e-07 0 0)
(-2.46463e-08 0 0)
(1.4204e-08 0 0)
(7.6669e-09 0 0)
(-2.47862e-08 0 0)
(2.73855e-08 0 0)
(-1.08644e-07 0 0)
(1.65907e-08 0 0)
(1.60308e-08 0 0)
(8.57327e-08 0 0)
(-1.3102e-07 0 0)
(-2.42847e-07 0 0)
(-1.18962e-07 0 0)
(-1.46021e-07 0 0)
(7.22545e-08 0 0)
(3.3551e-08 0 0)
(1.27901e-08 0 0)
(1.44652e-07 0 0)
(1.60207e-07 0 0)
(1.3916e-07 0 0)
(-5.52943e-08 0 0)
(-1.159e-10 0 0)
(0 0 0)
(1.66392e-11 0 0)
(1.66392e-11 0 0)
(0 0 0)
(0 0 0)
(0 0 0)
(-4.49193e-11 0 0)
(5.84453e-12 0 0)
(-5.8343e-11 0 0)
(-5.8343e-11 0 0)
(-4.60894e-10 0 0)
(-4.23254e-10 0 0)
(2.98549e-10 0 0)
(2.52313e-10 0 0)
(0 0 0)
(-1.5862e-10 0 0)
(-1.5862e-10 0 0)
(0 0 0)
(-2.75893e-10 0 0)
(-2.75893e-10 0 0)
(1.29129e-07 0 0)
(-4.94584e-08 0 0)
(3.89176e-10 0 0)
(3.89176e-10 0 0)
(0 0 0)
(2.30297e-07 0 0)
(-5.02812e-10 0 0)
(-5.02812e-10 0 0)
(4.08051e-11 0 0)
(6.66069e-10 0 0)
(0 0 0)
(0 0 0)
(7.82264e-10 0 0)
(9.17041e-10 0 0)
(0 0 0)
(-1.36332e-08 -2.35619e-25 -1.49588e-26)
(-1.28971e-08 0 0)
(1.3348e-10 0 0)
(2.39541e-10 0 0)
(2.48111e-10 0 0)
(-4.32639e-10 0 0)
(-4.30202e-10 0 0)
(-2.42927e-10 0 0)
(-2.57386e-10 0 0)
(-2.56841e-10 0 0)
(-2.70419e-11 0 0)
(-2.6509e-11 0 0)
(-5.07876e-10 0 0)
(-3.61178e-10 0 0)
(4.28266e-10 0 0)
(4.41237e-10 0 0)
(1.75766e-10 0 0)
(2.11269e-10 0 0)
(5.31962e-11 0 0)
(3.17701e-10 0 0)
(-2.19418e-10 0 0)
(-2.05267e-10 0 0)
(3.99337e-10 0 0)
(-2.81706e-10 0 0)
(1.01759e-10 0 0)
(5.6151e-10 0 0)
(1.6709e-10 0 0)
(2.16525e-07 0 0)
(-3.5355e-11 0 0)
(6.98324e-12 0 0)
(9.75171e-10 0 0)
(1.00093e-09 0 0)
(7.04093e-10 0 0)
(3.6013e-10 0 0)
(1.25091e-09 0 0)
(4.78987e-10 0 0)
(-2.71893e-10 0 0)
(3.50566e-10 0 0)
(5.24692e-09 0 0)
(1.3348e-10 0 0)
(6.12041e-09 0 0)
(3.31706e-10 0 0)
(-4.32639e-10 0 0)
(-4.30202e-10 0 0)
(-2.42927e-10 0 0)
(-2.57331e-10 0 0)
(-2.56787e-10 0 0)
(-2.89162e-11 0 0)
(-2.83833e-11 0 0)
(-1.83801e-10 0 0)
(-3.71031e-11 0 0)
(4.82854e-10 0 0)
(4.95824e-10 0 0)
(1.75766e-10 0 0)
(-4.31382e-10 0 0)
(2.96107e-09 0 0)
(6.7846e-09 0 0)
(2.53773e-10 0 0)
(-7.93874e-09 0 0)
(3.99337e-10 0 0)
(-2.81706e-10 0 0)
(4.29633e-10 0 0)
(5.62829e-09 0 0)
(1.35109e-08 0 0)
(-1.3772e-08 0 0)
(-4.75108e-12 0 0)
(3.75872e-11 0 0)
(1.00808e-08 0 0)
(2.43014e-09 0 0)
(7.04093e-10 0 0)
(3.6013e-10 0 0)
(4.73116e-09 0 0)
(1.16385e-08 0 0)
(1.85303e-08 0 0)
(-1.24197e-10 0 0)
(8.09263e-09 0 0)
(-5.77948e-08 0 0)
(-4.12566e-08 0 0)
(-7.10082e-09 0 0)
(0 0 0)
(0 0 0)
(0 0 0)
(3.64873e-11 0 0)
(3.64873e-11 0 0)
(-6.85993e-11 0 0)
(-3.313e-09 0 0)
(2.23758e-08 0 0)
(0 0 0)
(3.72605e-10 0 0)
(3.72605e-10 0 0)
(0 0 0)
(6.94046e-08 0 0)
(3.12693e-08 0 0)
(1.41796e-08 0 0)
(6.1277e-09 0 0)
(-2.27671e-08 0 0)
(-4.68851e-08 0 0)
(-1.91195e-08 0 0)
(0 0 0)
(-3.8793e-08 0 0)
(7.72312e-08 0 0)
(4.60456e-08 0 0)
(-2.5552e-08 0 0)
(-4.44649e-10 0 0)
(2.46207e-08 0 0)
(8.91933e-08 0 0)
(1.07626e-08 0 0)
(-1.87129e-08 0 0)
(1.31781e-08 0 0)
(3.5648e-08 0 0)
(1.20162e-07 0 0)
(-2.95851e-08 0 0)
(4.37698e-08 0 0)
(3.46062e-08 0 0)
(4.3106e-09 0 0)
(1.5838e-08 0 0)
(2.03673e-08 0 0)
(-2.79628e-09 0 0)
(0 0 0)
(3.40693e-11 0 0)
(3.40693e-11 0 0)
(-7.03348e-11 0 0)
(-7.03348e-11 0 0)
(1.80264e-08 0 0)
(-8.34919e-09 0 0)
(-5.13884e-10 0 0)
(-6.27842e-09 0 0)
(-8.2628e-09 0 0)
(6.08639e-08 0 0)
(2.11982e-08 0 0)
(1.18568e-08 0 0)
(1.04584e-08 0 0)
(-2.78124e-08 0 0)
(-4.14652e-08 0 0)
(2.7594e-08 0 0)
(5.80776e-08 0 0)
(-1.35434e-08 0 0)
(9.39266e-08 0 0)
(1.01868e-07 0 0)
(-6.5844e-09 0 0)
(-1.91816e-07 0 0)
(-1.6841e-07 0 0)
(2.53332e-08 0 0)
(-3.40884e-08 0 0)
(0 0 0)
(9.97156e-08 0 0)
(1.14841e-07 0 0)
(1.01069e-07 0 0)
(2.82975e-12 0 0)
(-1.50482e-10 0 0)
(0 0 0)
(-5.25577e-11 0 0)
(4.43692e-11 0 0)
(6.61351e-11 0 0)
(1.86413e-10 0 0)
(-1.65135e-11 0 0)
(1.1824e-10 0 0)
(6.12549e-11 0 0)
(-3.57164e-11 0 0)
(-5.9235e-12 0 0)
(-2.23648e-10 0 0)
(-4.21315e-11 0 0)
(5.57773e-10 0 0)
(5.47038e-10 0 0)
(3.47905e-10 0 0)
(-5.86415e-10 0 0)
(-4.32668e-10 0 0)
(3.10521e-10 0 0)
(-2.58043e-10 0 0)
(-3.56224e-11 0 0)
(1.82946e-10 0 0)
(-2.55101e-11 0 0)
(1.12407e-09 0 0)
(9.96912e-10 0 0)
(-6.28916e-10 0 0)
(-3.86414e-11 0 0)
(-2.51885e-10 0 0)
(3.6432e-10 0 0)
(7.24389e-10 0 0)
(1.06493e-09 0 0)
(6.76465e-10 0 0)
(6.76979e-10 0 0)
(3.11464e-09 0 0)
(2.51345e-09 0 0)
(-5.49751e-10 0 0)
(1.46184e-09 0 0)
(1.47861e-09 0 0)
(9.52144e-11 0 0)
(-1.04403e-10 0 0)
(-7.4759e-12 0 0)
(7.81271e-11 0 0)
(1.86413e-10 0 0)
(-1.65135e-11 0 0)
(7.96638e-11 0 0)
(2.2679e-11 0 0)
(-5.45065e-11 0 0)
(-2.47136e-11 0 0)
(-1.01166e-10 0 0)
(-6.50155e-11 0 0)
(5.19101e-10 0 0)
(5.08365e-10 0 0)
(1.8637e-10 0 0)
(-3.00683e-10 0 0)
(-1.46936e-10 0 0)
(3.10521e-10 0 0)
(-1.65381e-10 0 0)
(5.70399e-11 0 0)
(1.82946e-10 0 0)
(-2.55101e-11 0 0)
(5.76426e-10 0 0)
(2.68147e-10 0 0)
(-6.28916e-10 0 0)
(-3.86414e-11 0 0)
(-3.51485e-10 0 0)
(-1.8632e-10 0 0)
(7.24389e-10 0 0)
(1.06493e-09 0 0)
(6.76465e-10 0 0)
(6.76979e-10 0 0)
(2.15235e-09 0 0)
(1.55117e-09 0 0)
(-5.49751e-10 0 0)
(1.7726e-08 0 0)
(1.77985e-08 0 0)
(-1.05862e-10 0 0)
(2.33502e-11 0 0)
(4.23658e-11 0 0)
(1.01813e-11 0 0)
(4.6129e-11 0 0)
(8.42373e-11 0 0)
(-2.08562e-11 0 0)
(4.57982e-12 0 0)
(1.66052e-11 0 0)
(7.36354e-11 0 0)
(-5.06861e-10 0 0)
(6.09375e-09 0 0)
(2.65469e-10 0 0)
(3.51863e-09 0 0)
(4.16566e-09 0 0)
(-2.85518e-10 0 0)
(-1.32161e-10 0 0)
(2.34167e-10 0 0)
(-2.2432e-10 0 0)
(4.84033e-11 0 0)
(0 0 0)
(5.96379e-09 0 0)
(4.11774e-09 0 0)
(-1.25569e-10 0 0)
(-7.8584e-10 0 0)
(0 0 0)
(-4.23338e-10 0 0)
(-2.04489e-10 0 0)
(5.62367e-10 0 0)
(2.26475e-10 0 0)
(0 0 0)
(2.21457e-08 0 0)
(1.43411e-08 0 0)
(2.54133e-09 0 0)
(-4.34034e-10 0 0)
(-4.45579e-10 0 0)
(1.21788e-09 0 0)
(-1.05862e-10 0 0)
(-5.13174e-11 0 0)
(-3.23018e-11 0 0)
(1.01813e-11 0 0)
(4.6129e-11 0 0)
(8.42373e-11 0 0)
(-1.38431e-11 0 0)
(1.15929e-11 0 0)
(4.68751e-11 0 0)
(1.03905e-10 0 0)
(8.71063e-09 0 0)
(5.16064e-09 0 0)
(5.66301e-09 0 0)
(2.64506e-08 0 0)
(3.48932e-08 0 0)
(-4.39433e-10 0 0)
(-2.86076e-10 0 0)
(2.34167e-10 0 0)
(-2.59956e-10 0 0)
(1.27674e-11 0 0)
(1.03391e-07 0 0)
(5.34634e-08 0 0)
(1.94486e-08 0 0)
(-3.37874e-10 0 0)
(1.36826e-07 0 0)
(2.84826e-07 0 0)
(-3.59605e-10 0 0)
(-1.40756e-10 0 0)
(-9.53679e-10 0 0)
(-3.18535e-08 0 0)
(1.92452e-07 0 0)
(5.73248e-08 0 0)
(1.77121e-08 0 0)
(-2.00398e-10 0 0)
(-4.34034e-10 0 0)
(-1.91293e-09 0 0)
(1.10204e-10 0 0)
(0 0 0)
(-7.74704e-11 0 0)
(-7.74704e-11 0 0)
(0 0 0)
(0 0 0)
(0 0 0)
(-6.58121e-11 0 0)
(-6.58121e-11 0 0)
(-1.21561e-09 0 0)
(-7.90719e-09 0 0)
(-5.10442e-09 0 0)
(-8.33837e-09 0 0)
(1.89974e-08 0 0)
(3.66987e-08 0 0)
(2.94589e-08 0 0)
(-2.2773e-08 0 0)
(-2.1333e-08 0 0)
(0 0 0)
(-1.48065e-08 0 0)
(-2.0457e-10 0 0)
(1.09446e-07 0 0)
(3.84114e-08 0 0)
(6.41844e-08 0 0)
(3.80608e-08 0 0)
(-1.10702e-08 0 0)
(1.45139e-07 0 0)
(-1.32354e-08 0 0)
(-2.59259e-07 0 0)
(-2.47005e-07 0 0)
(-4.53736e-08 0 0)
(1.73119e-07 0 0)
(3.16791e-08 0 0)
(6.99556e-08 0 0)
(6.41843e-08 0 0)
(-2.01698e-11 0 0)
(-7.74601e-13 0 0)
(0 0 0)
(0 0 0)
(-1.71976e-11 0 0)
(-1.71976e-11 0 0)
(0 0 0)
(0 0 0)
(0 0 0)
(-9.18892e-11 0 0)
(-9.18892e-11 0 0)
(-2.67119e-11 0 0)
(1.83711e-11 0 0)
(-2.4083e-10 0 0)
(-2.4083e-10 0 0)
(2.35312e-10 0 0)
(2.35312e-10 0 0)
(0 0 0)
(-3.32466e-10 0 0)
(-5.08053e-10 0 0)
(0 0 0)
(-3.15161e-10 0 0)
(-4.88534e-10 0 0)
(0 0 0)
(0 0 0)
(2.44307e-10 0 0)
(3.66274e-10 0 0)
(0 0 0)
(0 0 0)
(-1.87764e-10 0 0)
(4.93349e-11 0 0)
(0 0 0)
(0 0 0)
(0 0 0)
(0 0 0)
(3.54952e-09 0 0)
(3.60363e-09 0 0)
(0 0 0)
(-8.81446e-09 1.43177e-30 -3.57765e-36)
(5.52782e-10 1.35971e-49 5.15794e-40)
(-2.2229e-10 0 0)
(-5.78406e-10 0 0)
(-5.36935e-10 0 0)
(2.18196e-10 0 0)
(3.04415e-10 0 0)
(2.88633e-10 0 0)
(2.31072e-10 0 0)
(2.24124e-10 0 0)
(8.3093e-11 0 0)
(9.98595e-11 0 0)
(-1.25858e-10 0 0)
(-1.21058e-10 0 0)
(1.89008e-10 0 0)
(2.09695e-10 0 0)
(-2.10319e-12 0 0)
(-4.00451e-10 0 0)
(-6.13938e-10 0 0)
(9.77705e-11 0 0)
(-5.96713e-10 0 0)
(-6.03876e-10 0 0)
(2.62632e-10 0 0)
(3.0484e-10 0 0)
(3.80306e-10 0 0)
(1.23234e-09 0 0)
(1.25079e-09 0 0)
(7.41684e-10 0 0)
(3.81043e-10 0 0)
(6.32507e-10 0 0)
(1.35238e-09 0 0)
(1.40921e-09 0 0)
(6.84328e-10 0 0)
(1.15158e-10 0 0)
(2.85034e-09 0 0)
(2.12727e-09 0 0)
(-3.58638e-10 0 0)
(-4.42093e-09 1.43177e-30 -3.57817e-36)
(-4.68291e-09 0 0)
(-2.2229e-10 0 0)
(-1.30413e-08 0 0)
(-6.48282e-09 0 0)
(2.18196e-10 0 0)
(3.04415e-10 0 0)
(2.88633e-10 0 0)
(4.46287e-09 0 0)
(2.25355e-09 0 0)
(6.3847e-10 0 0)
(1.88693e-09 0 0)
(-3.80406e-12 0 0)
(1.45332e-09 0 0)
(-5.05057e-11 0 0)
(-1.69426e-09 0 0)
(-1.9434e-09 0 0)
(2.42464e-10 0 0)
(-1.9424e-09 0 0)
(-1.85275e-09 0 0)
(-3.1379e-09 0 0)
(-4.24308e-09 0 0)
(-9.88289e-10 0 0)
(3.0484e-10 0 0)
(1.52239e-10 0 0)
(6.95358e-09 0 0)
(7.84043e-09 0 0)
(7.41684e-10 0 0)
(9.00468e-09 0 0)
(9.04258e-09 0 0)
(1.35238e-09 0 0)
(1.40921e-09 0 0)
(6.84328e-10 0 0)
(4.94135e-09 0 0)
(3.37729e-09 0 0)
(-9.95693e-09 0 0)
(-2.19422e-08 0 0)
(-7.14973e-11 0 0)
(-6.0087e-09 0 0)
(-6.48014e-08 0 0)
(-1.96971e-07 0 0)
(-1.36446e-08 0 0)
(0 0 0)
(0 0 0)
(-5.07541e-08 0 0)
(-1.55534e-08 0 0)
(-2.01917e-09 0 0)
(-4.47972e-09 0 0)
(4.20013e-09 0 0)
(-3.28374e-08 0 0)
(-1.86691e-09 0 0)
(-1.27144e-08 0 0)
(-1.28139e-08 0 0)
(-1.40957e-08 0 0)
(6.25718e-08 0 0)
(-1.06883e-08 0 0)
(-1.62196e-08 0 0)
(-1.5543e-08 0 0)
(-2.37205e-08 0 0)
(-7.15339e-08 0 0)
(9.6715e-10 0 0)
(0 0 0)
(5.1462e-08 0 0)
(5.99158e-08 0 0)
(4.22417e-08 0 0)
(2.61892e-08 0 0)
(7.04661e-08 0 0)
(0 0 0)
(0 0 0)
(-4.13599e-08 0 0)
(-8.03091e-08 0 0)
(-2.06241e-08 0 0)
(1.08688e-08 0 0)
(-8.85894e-08 0 0)
(-3.18271e-08 0 0)
(2.09781e-08 0 0)
(9.0994e-08 0 0)
(-5.14353e-08 0 0)
(-1.37933e-08 0 0)
(-1.08421e-08 0 0)
(7.25717e-09 0 0)
(1.02958e-07 0 0)
(1.21464e-07 0 0)
(-8.05788e-09 0 0)
(-8.98666e-09 0 0)
(9.05673e-09 0 0)
(-1.43391e-08 0 0)
(8.81945e-09 0 0)
(-2.45219e-08 0 0)
(-2.29427e-08 0 0)
(-2.56141e-08 0 0)
(5.26953e-08 0 0)
(-4.63115e-09 0 0)
(-6.8835e-09 0 0)
(-5.99461e-09 0 0)
(-3.46493e-08 0 0)
(-8.58792e-08 0 0)
(-9.69634e-09 0 0)
(-7.6391e-08 0 0)
(-2.1047e-08 0 0)
(2.89607e-08 0 0)
(-3.67643e-08 0 0)
(-3.57426e-08 0 0)
(6.75026e-08 0 0)
(-2.41031e-08 0 0)
(1.32003e-07 0 0)
(-4.65621e-08 0 0)
(-2.52204e-07 0 0)
(1.39943e-07 0 0)
(1.83735e-07 0 0)
(-6.73695e-08 0 0)
(-1.0203e-07 0 0)
(-3.26451e-08 0 0)
(0 0 0)
(2.92837e-11 0 0)
(2.92837e-11 0 0)
(-1.04145e-11 0 0)
(-1.55306e-10 0 0)
(0 0 0)
(6.75096e-12 0 0)
(6.75096e-12 0 0)
(-1.8483e-11 0 0)
(-1.8483e-11 0 0)
(1.39788e-10 0 0)
(1.39788e-10 0 0)
(-3.66778e-11 0 0)
(-3.66778e-11 0 0)
(0 0 0)
(1.78343e-10 0 0)
(1.78343e-10 0 0)
(0 0 0)
(6.70421e-12 0 0)
(6.70421e-12 0 0)
(0 0 0)
(0 0 0)
(-1.07759e-10 0 0)
(-3.13031e-10 0 0)
(0 0 0)
(0 0 0)
(-4.20925e-10 0 0)
(-4.20925e-10 0 0)
(2.72455e-10 0 0)
(-9.81465e-10 0 0)
(0 0 0)
(0 0 0)
(7.40755e-10 0 0)
(7.40755e-10 0 0)
(0 0 0)
(0 0 0)
(0 0 0)
(0 0 0)
(-1.2555e-10 0 0)
(-1.2555e-10 0 0)
(0 0 0)
(0 0 0)
(0 0 0)
(2.3557e-12 0 0)
(2.3557e-12 0 0)
(6.97023e-11 0 0)
(6.97023e-11 0 0)
(9.99489e-11 0 0)
(9.99489e-11 0 0)
(-1.85756e-11 0 0)
(-1.85756e-11 0 0)
(0 0 0)
(8.39878e-12 0 0)
(8.39878e-12 0 0)
(0 0 0)
(-6.35865e-11 0 0)
(-6.35865e-11 0 0)
(0 0 0)
(0 0 0)
(-1.50372e-10 0 0)
(-1.50372e-10 0 0)
(0 0 0)
(0 0 0)
(-5.11895e-10 0 0)
(-5.11895e-10 0 0)
(0 0 0)
(0 0 0)
(0 0 0)
(0 0 0)
(5.69183e-10 0 0)
(5.69183e-10 0 0)
(0 0 0)
(-2.74024e-09 0 0)
(-2.21095e-08 0 0)
(-1.93693e-08 0 0)
(-1.16481e-10 0 0)
(-1.16481e-10 0 0)
(0 0 0)
(0 0 0)
(0 0 0)
(6.95811e-12 0 0)
(6.95811e-12 0 0)
(6.78972e-11 0 0)
(6.78972e-11 0 0)
(9.32047e-11 0 0)
(9.32047e-11 0 0)
(-3.31282e-11 0 0)
(-3.31282e-11 0 0)
(0 0 0)
(-1.148e-10 0 0)
(-1.148e-10 0 0)
(0 0 0)
(-6.37889e-11 0 0)
(-6.37889e-11 0 0)
(0 0 0)
(0 0 0)
(7.29083e-10 0 0)
(8.10046e-10 0 0)
(6.28348e-09 0 0)
(0 0 0)
(-2.49293e-10 0 0)
(-4.70709e-09 0 0)
(0 0 0)
(0 0 0)
(0 0 0)
(0 0 0)
(3.0696e-10 0 0)
(3.0696e-10 0 0)
(0 0 0)
(0 0 0)
(0 0 0)
(0 0 0)
(-5.32054e-11 0 0)
(-5.32054e-11 0 0)
(0 0 0)
(0 0 0)
(0 0 0)
(9.58152e-13 0 0)
(9.58152e-13 0 0)
(2.42765e-11 0 0)
(2.42765e-11 0 0)
(1.15134e-10 0 0)
(1.15134e-10 0 0)
(-6.54426e-11 0 0)
(-6.54426e-11 0 0)
(0 0 0)
(-2.02365e-10 0 0)
(-2.02365e-10 0 0)
(0 0 0)
(-1.02698e-10 0 0)
(-1.02698e-10 0 0)
(0 0 0)
(0 0 0)
(0 0 0)
(-4.60517e-08 0 0)
(1.38146e-08 0 0)
(0 0 0)
(-2.57473e-08 0 0)
(-7.86283e-08 0 0)
(0 0 0)
(0 0 0)
(0 0 0)
(0 0 0)
(2.19118e-10 0 0)
(2.19118e-10 0 0)
(0 0 0)
(-4.82577e-08 9.5878e-24 -3.13382e-24)
(-3.7003e-09 0 0)
(8.20215e-11 0 0)
(-2.18344e-11 0 0)
(5.9964e-11 0 0)
(1.0591e-10 0 0)
(2.39167e-10 0 0)
(-2.45113e-11 0 0)
(-4.59963e-12 0 0)
(-4.06631e-11 0 0)
(-7.81296e-11 0 0)
(-6.28879e-11 0 0)
(1.99406e-10 0 0)
(1.57582e-10 0 0)
(-7.23391e-11 0 0)
(-7.68975e-11 0 0)
(3.06152e-11 0 0)
(-5.01585e-10 0 0)
(-4.81634e-10 0 0)
(8.81725e-11 0 0)
(-5.07336e-11 0 0)
(-1.00544e-10 0 0)
(-1.37736e-11 0 0)
(1.30977e-08 0 0)
(3.04456e-08 0 0)
(-2.83793e-08 0 0)
(-1.10179e-08 0 0)
(-3.01149e-07 0 0)
(-3.0747e-07 0 0)
(7.16467e-09 0 0)
(8.2695e-08 0 0)
(1.31729e-09 0 0)
(-3.64716e-10 0 0)
(-2.85589e-10 0 0)
(5.82499e-11 0 0)
(2.2619e-10 0 0)
(2.63879e-10 0 0)
(-3.41868e-10 0 0)
(0 0 0)
(8.20215e-11 0 0)
(-9.53539e-11 0 0)
(-1.35555e-11 0 0)
(1.0591e-10 0 0)
(2.39167e-10 0 0)
(-2.45113e-11 0 0)
(2.94035e-11 0 0)
(-6.65997e-12 0 0)
(-3.44496e-11 0 0)
(-1.92079e-11 0 0)
(4.32958e-10 0 0)
(3.91134e-10 0 0)
(-7.12969e-11 0 0)
(-7.58554e-11 0 0)
(3.06152e-11 0 0)
(-4.41398e-10 0 0)
(-4.21447e-10 0 0)
(8.81725e-11 0 0)
(1.73224e-11 0 0)
(-3.24884e-11 0 0)
(-1.37736e-11 0 0)
(-1.22518e-10 0 0)
(7.45461e-10 0 0)
(9.62166e-10 0 0)
(0 0 0)
(-2.74369e-10 0 0)
(-3.01889e-11 0 0)
(-3.01889e-11 0 0)
(-3.5612e-10 0 0)
(-6.904e-10 0 0)
(-3.64716e-10 0 0)
(-2.85589e-10 0 0)
(1.11421e-11 0 0)
(1.79082e-10 0 0)
(2.63879e-10 0 0)
(0 0 0)
(0 0 0)
(0 0 0)
(-1.23343e-10 0 0)
(-1.23343e-10 0 0)
(0 0 0)
(0 0 0)
(0 0 0)
(6.18694e-11 0 0)
(6.18694e-11 0 0)
(6.4297e-11 0 0)
(6.4297e-11 0 0)
(2.98905e-10 0 0)
(2.98905e-10 0 0)
(-4.20471e-11 0 0)
(-4.20471e-11 0 0)
(0 0 0)
(-3.71806e-10 0 0)
(-3.71806e-10 0 0)
(0 0 0)
(-5.14645e-12 0 0)
(-5.14645e-12 0 0)
(0 0 0)
(0 0 0)
(7.47454e-10 0 0)
(7.47454e-10 0 0)
(0 0 0)
(0 0 0)
(-6.90284e-11 0 0)
(-6.90284e-11 0 0)
(0 0 0)
(0 0 0)
(0 0 0)
(0 0 0)
(9.97173e-11 0 0)
(9.97173e-11 0 0)
(0 0 0)
(-2.42161e-08 0 0)
(9.4677e-09 0 0)
(0 0 0)
(-1.95891e-09 0 0)
(9.38078e-10 0 0)
(0 0 0)
(0 0 0)
(3.54866e-09 0 0)
(2.7041e-09 0 0)
(2.1845e-10 0 0)
(-7.06136e-10 0 0)