/*--------------------------------*- C++ -*----------------------------------*\
| =========                 |                                                 |
| \\      /  F ield         | OpenFOAM: The Open Source CFD Toolbox           |
|  \\    /   O peration     | Version:  2.2.x                                 |
|   \\  /    A nd           | Web:      www.OpenFOAM.org                      |
|    \\/     M anipulation  |                                                 |
\*---------------------------------------------------------------------------*/
FoamFile
{
    version     2.0;
    format      ascii;
    class       vectorField;
    location    "0.01";
    object      angularMomentum;
}
// * * * * * * * * * * * * * * * * * * * * * * * * * * * * * * * * * * * * * //


2405
(
(-4.70945e-15 -1.9509e-30 -9.57975e-31)
(-1.2813e-13 -4.13315e-30 -3.76892e-30)
(-1.23471e-13 4.10731e-31 2.41509e-30)
(1.01875e-13 1.57398e-29 -4.6227e-30)
(5.8664e-14 1.98804e-30 3.03617e-30)
(1.26101e-14 4.18673e-30 3.41137e-30)
(-8.81502e-14 -3.33479e-31 -4.42227e-31)
(-1.6153e-13 -5.0229e-30 5.81575e-30)
(-2.20695e-14 7.24824e-30 -2.18876e-30)
(-6.23747e-15 -1.59553e-32 7.1252e-32)
(-1.9012e-14 -8.95903e-30 -7.57661e-31)
(-2.95147e-14 1.74241e-33 -3.9735e-31)
(-4.45288e-14 6.4259e-30 -1.08591e-30)
(-7.91148e-14 3.75039e-30 -3.06033e-31)
(6.1057e-14 -1.7971e-30 -5.80675e-31)
(-4.08024e-14 -1.30509e-32 8.02371e-32)
(-9.65238e-14 1.314e-30 7.13064e-31)
(7.40775e-14 -2.82428e-29 1.75532e-30)
(8.45096e-14 -1.07481e-29 -1.83854e-30)
(2.50909e-14 1.56185e-39 1.02963e-33)
(-2.8285e-14 3.24125e-32 -1.00522e-32)
(2.8524e-14 -2.42514e-29 -5.89065e-31)
(1.62585e-13 -3.07914e-29 2.62747e-30)
(6.53549e-14 2.62956e-30 -2.63654e-30)
(-1.02704e-13 1.28482e-30 -2.55413e-30)
(-2.39565e-14 6.08517e-36 -5.78549e-31)
(-1.81459e-14 1.78775e-31 3.86061e-31)
(-1.30057e-13 2.0317e-30 1.25718e-29)
(1.19348e-13 -1.93686e-30 -8.07612e-30)
(3.65417e-14 -9.40255e-35 6.54485e-31)
(-3.40392e-14 7.88074e-30 -1.47392e-30)
(-1.06941e-13 -6.3576e-30 8.6233e-30)
(3.22077e-14 -4.89712e-32 -2.4434e-30)
(5.92954e-14 5.58369e-37 6.46087e-31)
(-4.35734e-16 -3.21397e-38 -1.3613e-32)
(2.59259e-15 -1.27251e-29 1.28194e-31)
(-7.78698e-16 7.95282e-43 -2.54405e-49)
(-2.26182e-14 -4.86233e-31 -1.35646e-30)
(1.65912e-13 2.40356e-30 -2.77838e-31)
(-1.90413e-13 2.61804e-29 -4.12619e-35)
(-1.04089e-13 -5.68748e-30 2.21204e-36)
(1.26828e-13 1.07779e-37 2.55531e-35)
(8.54991e-14 2.35889e-30 1.42071e-35)
(1.47489e-13 1.2238e-29 -6.44047e-36)
(1.53907e-13 4.32396e-30 2.22131e-36)
(6.725e-14 2.0422e-30 -1.52529e-35)
(8.21136e-14 2.65384e-34 -5.32679e-36)
(-4.08644e-14 1.68866e-29 -1.38926e-35)
(-2.00045e-13 -1.19651e-35 3.06116e-35)
(3.87814e-14 -1.48779e-29 -3.89491e-35)
(1.72512e-13 9.92297e-31 -3.60442e-38)
(-1.26454e-15 1.51023e-30 4.75578e-36)
(-6.32251e-14 1.74508e-33 -1.49243e-35)
(7.54688e-14 6.69312e-31 -1.28799e-35)
(-6.77835e-14 5.59783e-30 1.07632e-35)
(-5.283e-15 3.66332e-30 2.06656e-35)
(3.13698e-14 -4.87035e-39 1.86911e-36)
(-5.26897e-14 3.70018e-34 8.78689e-36)
(-1.24993e-14 -3.35918e-29 -2.77921e-35)
(-1.5834e-13 2.64886e-29 5.24807e-36)
(-1.21536e-13 -9.94982e-31 -8.21962e-37)
(-7.85352e-14 -5.27731e-30 2.20805e-38)
(-1.08435e-13 -2.89947e-39 -2.30806e-36)
(6.37935e-15 -1.27402e-32 7.8181e-37)
(5.02811e-14 -6.53317e-30 -6.01098e-36)
(5.18571e-14 -1.03553e-29 9.31719e-36)
(8.88607e-14 1.82922e-35 2.37038e-35)
(-5.14143e-14 6.94978e-30 -1.59843e-35)
(1.14155e-14 -2.83085e-29 -8.77081e-35)
(-1.04348e-13 9.70664e-33 4.09842e-39)
(-5.3406e-14 3.66463e-37 3.44452e-38)
(4.82353e-14 1.37889e-39 -1.94111e-36)
(-2.65602e-14 -9.50434e-30 1.91465e-35)
(-4.55934e-15 -4.63736e-41 1.01789e-35)
(-2.63391e-13 7.47262e-30 -1.50304e-29)
(4.58156e-13 -5.36929e-35 -5.01405e-30)
(-9.55579e-15 1.56453e-39 2.06989e-41)
(-3.23219e-13 -6.83273e-36 -8.03622e-41)
(5.17349e-14 7.973e-47 5.06586e-41)
(3.4133e-14 -2.2077e-35 -4.87261e-41)
(-1.25998e-13 7.93189e-46 1.03712e-40)
(9.72867e-14 -4.22125e-44 5.54464e-38)
(5.83447e-14 4.33802e-35 -1.2138e-36)
(-1.44054e-13 -2.48041e-41 8.87916e-36)
(2.04066e-13 -1.60836e-40 -3.90999e-35)
(-1.26092e-13 1.00807e-39 2.75974e-35)
(-4.01151e-13 -2.20319e-30 4.49797e-35)
(-1.69312e-13 -6.16583e-35 -1.3812e-40)
(2.27682e-14 -1.43367e-45 2.944e-39)
(3.27367e-13 -8.47497e-45 -3.70118e-39)
(1.6493e-13 5.31006e-36 -2.7353e-40)
(1.24558e-13 2.47185e-33 -2.50333e-39)
(-5.62205e-14 -1.81969e-35 6.15998e-41)
(4.67654e-14 1.70818e-45 -3.0779e-41)
(1.95676e-13 1.0899e-45 2.47461e-40)
(-1.83444e-13 2.35782e-46 -1.97837e-40)
(-2.1803e-14 7.48851e-44 -6.29934e-43)
(-1.68871e-13 5.40929e-45 -6.00476e-40)
(-9.69539e-14 -9.7037e-35 7.33418e-40)
(4.78261e-14 3.52776e-41 -1.00721e-40)
(1.29677e-13 8.7047e-35 7.19439e-40)
(8.75761e-14 -5.31877e-47 4.37344e-40)
(-1.28178e-13 -8.39271e-35 -3.21187e-41)
(1.40204e-13 -8.70082e-38 3.9455e-40)
(8.74624e-14 -3.99766e-34 -1.61233e-39)
(6.28309e-14 2.28551e-36 2.54247e-39)
(2.04479e-13 -6.26787e-34 2.18132e-39)
(-9.96587e-14 7.43757e-46 -1.97669e-40)
(-1.15362e-13 -5.62084e-45 9.75914e-40)
(1.69262e-13 -6.01439e-35 -6.41406e-40)
(1.46351e-13 5.16153e-44 4.52303e-40)
(7.94368e-15 -2.66102e-30 -2.49845e-36)
(-1.60336e-14 1.61503e-34 3.77961e-37)
(1.0421e-13 -5.33057e-38 -5.90745e-40)
(-1.97953e-13 4.32777e-36 2.82758e-41)
(6.99925e-14 7.44677e-48 3.89957e-42)
(4.68601e-14 3.13512e-36 -4.95599e-42)
(1.01754e-13 -3.27121e-47 5.63167e-42)
(-5.83576e-14 1.08083e-42 8.09762e-40)
(-2.44951e-14 -1.30734e-34 -4.52276e-40)
(-4.67662e-14 1.18791e-43 2.29937e-40)
(4.14661e-14 5.94927e-42 -2.09264e-41)
(2.16111e-14 -2.68762e-43 1.29202e-42)
(2.49046e-13 5.83659e-49 -4.00006e-44)
(9.99243e-14 3.01891e-34 1.80131e-39)
(-4.58302e-14 8.24636e-45 -5.04226e-41)
(-1.71126e-15 -8.43061e-46 7.19484e-42)
(-5.03068e-14 1.75858e-35 -4.94242e-40)
(-2.90826e-13 6.1568e-43 -6.16331e-42)
(-1.32532e-13 1.18299e-35 9.11352e-40)
(-3.51786e-14 -2.45158e-46 -4.08826e-44)
(7.3303e-14 -1.68184e-46 2.01173e-44)
(5.12613e-14 1.20922e-48 -4.44754e-45)
(-5.46405e-14 -2.07091e-43 3.75379e-46)
(-1.16385e-13 -2.21914e-45 -2.32301e-40)
(-2.10071e-13 8.77226e-35 -2.57415e-40)
(4.83128e-14 -1.61576e-42 -1.07153e-40)
(1.36407e-13 -5.01073e-36 -1.67692e-42)
(1.29818e-13 -3.4714e-46 2.99339e-42)
(-4.33998e-14 1.02924e-34 2.22607e-39)
(-2.29449e-13 -1.17111e-45 1.6354e-40)
(-8.16861e-14 1.06719e-34 -1.82462e-39)
(1.44202e-13 -1.20559e-36 -1.0144e-39)
(-1.79198e-14 -8.69907e-47 3.71756e-45)
(-6.4536e-14 3.59093e-46 -2.0418e-44)
(2.31456e-13 -2.19614e-45 1.05084e-40)
(1.23989e-13 2.30266e-34 -3.9751e-40)
(5.14722e-15 1.19303e-46 8.79303e-41)
(1.82339e-15 9.17178e-30 1.86535e-33)
(-1.09967e-13 -1.65886e-35 1.50999e-36)
(-1.67815e-13 -1.43257e-36 -3.55309e-38)
(7.07399e-15 -9.40518e-36 1.8566e-41)
(-1.0801e-13 1.01537e-46 -3.07483e-41)
(2.6956e-14 -1.91104e-35 4.5402e-41)
(-1.01419e-13 -2.38203e-45 7.22935e-42)
(-6.29122e-14 -6.3613e-43 -1.52041e-45)
(1.02081e-13 1.32978e-34 1.6685e-41)
(5.27963e-15 5.95325e-44 -1.02991e-40)
(-5.07729e-14 -7.67004e-43 5.76175e-42)
(-9.36617e-14 3.53105e-43 -3.32728e-43)
(-3.36317e-14 2.11463e-46 1.42098e-44)
(-2.32401e-14 -5.97051e-34 6.01401e-41)
(1.09456e-13 -2.32036e-45 -4.73174e-40)
(-7.52349e-14 1.89248e-46 1.18318e-40)
(-2.77534e-14 -4.0408e-35 -7.70965e-41)
(1.47867e-13 4.16993e-40 -3.09774e-41)
(3.76397e-14 -5.32067e-35 -1.23619e-40)
(7.63026e-16 -6.60656e-47 -5.84489e-41)
(-3.07517e-14 9.34649e-49 -1.61885e-52)
(-1.22699e-13 1.76147e-47 5.25908e-51)
(1.1707e-13 7.15028e-44 -3.93011e-49)
(4.72671e-14 1.02174e-44 4.17544e-40)
(1.33532e-13 -1.77348e-34 -5.63352e-40)
(5.22867e-14 4.53653e-44 -1.99384e-45)
(7.72458e-14 1.20997e-37 5.30786e-44)
(-2.71904e-14 2.40978e-46 2.07174e-45)
(-6.25081e-14 -4.62295e-35 1.15614e-39)
(9.01918e-14 3.99858e-45 -9.3208e-40)
(3.41656e-14 -2.84249e-34 6.01386e-40)
(-1.07956e-13 -5.75597e-35 5.34112e-40)
(-7.09137e-14 -1.89311e-47 -5.68202e-41)
(4.59905e-14 -4.05513e-46 -2.21466e-52)
(-3.06524e-14 6.11816e-46 9.29074e-52)
(-5.91268e-14 -1.86434e-34 3.80935e-41)
(-3.1518e-16 9.11324e-47 -3.41051e-41)
(-2.54803e-14 -9.9416e-30 -1.029e-35)
(3.37563e-14 1.85172e-36 2.5316e-37)
(8.00176e-15 -8.40145e-37 -2.2577e-40)
(8.58256e-14 1.11636e-37 1.69591e-43)
(3.41741e-14 -9.85013e-47 1.9192e-42)
(-2.02124e-14 5.47008e-36 -6.84867e-43)
(1.71386e-13 9.0533e-46 -1.88195e-42)
(9.93446e-14 9.67247e-44 1.03304e-43)
(4.90873e-14 -9.86782e-35 1.46391e-40)
(-3.067e-14 -3.77136e-45 -1.48373e-42)
(-2.0452e-14 6.35481e-44 2.77692e-42)
(-1.12426e-14 -4.94999e-44 -1.36899e-42)
(1.58984e-14 -1.65904e-49 5.99504e-44)
(6.39155e-14 2.0122e-34 6.60702e-41)
(-3.04616e-14 7.66397e-46 1.20188e-41)
(-2.96046e-14 -5.11033e-47 -7.95983e-42)
(-5.23952e-14 3.35805e-35 -2.56832e-42)
(-3.78359e-13 -4.87066e-47 -9.59313e-42)
(-1.73054e-13 6.50478e-35 -3.77663e-41)
(3.0427e-14 -1.54951e-48 2.66448e-42)
(-2.23992e-14 7.55095e-48 -9.57071e-44)
(1.61096e-13 1.62961e-48 2.96217e-45)
(3.24815e-13 -2.24368e-43 -7.47445e-47)
(4.03326e-14 -6.08936e-45 -2.03735e-40)
(1.11048e-14 2.70204e-34 -1.63652e-40)
(-2.64931e-14 -6.48473e-46 1.44486e-40)
(-6.83833e-14 -1.202e-39 -1.32063e-40)
(-3.48004e-14 -3.79396e-45 -3.75695e-40)
(-3.68599e-14 4.07464e-34 1.7044e-40)
(-3.67657e-14 -2.08732e-45 3.82393e-41)
(7.14289e-15 2.1838e-34 1.18977e-40)
(3.00715e-14 6.46504e-35 -1.11973e-40)
(-9.13129e-14 -2.15903e-46 4.44532e-52)
(3.53224e-14 8.38331e-47 3.90254e-53)
(-1.50685e-15 -9.44417e-47 2.45093e-41)
(2.06376e-14 4.82118e-34 2.55279e-40)
(-1.06575e-14 -1.54423e-46 3.40549e-41)
(2.44564e-14 1.08544e-31 5.97297e-33)
(-1.16611e-14 8.8872e-38 -4.50226e-34)
(-7.4541e-14 -5.7924e-36 8.18073e-36)
(-1.31515e-13 -5.74809e-42 1.64388e-48)
(4.88461e-14 9.43838e-48 -1.12189e-44)
(-2.18933e-14 -3.75758e-38 -3.93134e-44)
(2.45007e-14 -9.44537e-47 1.39451e-44)
(-2.05691e-13 -6.32308e-43 -2.6369e-46)
(-9.4323e-14 6.78597e-35 2.33858e-41)
(8.51469e-14 1.0139e-46 4.36459e-44)
(-5.71868e-14 4.67093e-49 -5.37284e-44)
(5.84428e-14 1.79226e-45 3.05926e-44)
(7.50829e-14 2.77801e-49 -2.24418e-45)
(2.30094e-14 -6.01882e-38 2.14682e-44)
(2.18765e-14 -7.57584e-47 -8.6375e-44)
(-4.90014e-14 3.33337e-48 8.86159e-43)
(1.26237e-13 -1.41413e-36 1.59854e-42)
(2.03499e-13 1.45057e-47 1.40448e-43)
(-6.74152e-14 -8.7468e-37 -2.39634e-43)
(3.25738e-14 3.9386e-49 -2.27189e-47)
(-4.89618e-14 -6.52939e-51 2.3871e-47)
(1.48096e-13 -4.10433e-51 -4.74844e-48)
(-2.90648e-13 -7.41594e-54 7.05293e-49)
(-5.68612e-14 1.94206e-45 -4.72246e-44)
(6.76728e-14 -1.27925e-35 2.90421e-42)
(-1.1767e-13 3.44627e-47 9.00145e-43)
(9.91415e-14 6.24379e-42 -4.81784e-43)
(3.40477e-13 1.10418e-45 2.45795e-41)
(-4.60947e-14 -3.50118e-35 1.3671e-41)
(2.48868e-14 2.18868e-47 -3.37694e-42)
(-7.61948e-14 -1.64704e-35 -3.58587e-41)
(1.38517e-13 -2.19713e-39 1.03026e-41)
(1.87636e-14 9.53604e-47 -7.29148e-53)
(-7.5278e-14 -7.51174e-51 1.08154e-53)
(9.49698e-14 7.15499e-48 -9.35104e-42)
(-4.3224e-14 -1.64731e-34 6.8737e-41)
(2.61979e-14 6.74915e-47 -1.41724e-41)
(-5.44683e-14 -1.28863e-29 -9.33097e-30)
(8.63999e-14 7.1297e-36 1.92391e-31)
(-5.76346e-14 -8.05194e-37 7.17631e-31)
(5.37548e-15 -4.82584e-52 3.6422e-56)
(5.6467e-14 9.48873e-50 -1.25639e-54)
(1.85837e-13 1.36412e-56 2.30817e-53)
(-1.59898e-13 -2.63732e-57 -4.64919e-52)
(-1.67601e-13 5.3225e-45 1.95214e-50)
(-2.33355e-13 5.58377e-64 -4.43027e-58)
(-2.62018e-14 9.28889e-62 2.33595e-56)
(-7.01406e-14 -1.00986e-50 -9.23294e-55)
(1.43152e-13 5.28652e-59 2.25474e-54)
(-3.79844e-14 -2.94856e-49 2.77237e-54)
(1.05052e-14 4.77355e-79 6.17716e-73)
(-3.77287e-14 -1.96012e-78 1.29013e-74)
(7.42229e-14 -4.55351e-78 -9.80911e-74)
(1.7095e-13 2.88668e-68 6.26857e-73)
(-4.98494e-14 -1.98621e-49 -1.00987e-55)
(-2.41351e-13 -1.07936e-66 1.15656e-67)
(4.4023e-14 4.14085e-68 2.41293e-64)
(-1.71994e-13 -7.03121e-68 -6.09616e-62)
(2.53244e-13 -6.34653e-66 8.19449e-61)
(1.33666e-13 1.26179e-54 3.43442e-60)
(-6.5114e-14 -2.17324e-66 -2.88134e-61)
(1.03758e-13 -1.02405e-68 4.08478e-63)
(-1.65981e-13 -1.12448e-71 -1.02309e-65)
(8.93965e-14 -3.60753e-72 -2.67085e-74)
(1.25556e-13 -2.46941e-54 3.13272e-59)
(1.84397e-13 -1.77068e-63 -7.75349e-59)
(-6.64183e-14 -1.27023e-63 -2.43679e-58)
(7.61159e-14 -1.16144e-61 5.378e-56)
(1.07665e-13 -2.59848e-59 -1.81421e-54)
(1.20004e-13 -6.88677e-48 -6.76936e-53)
(-2.16951e-13 3.14415e-63 3.94319e-69)
(1.22009e-13 -2.85223e-65 1.19263e-70)
(-1.41288e-13 4.78936e-69 -8.34025e-70)
(-1.07512e-13 -1.03511e-69 5.18284e-71)
(1.15282e-14 -3.82064e-31 9.12423e-31)
(9.07131e-15 -1.20246e-37 -2.23262e-32)
(5.13563e-14 1.33983e-37 -1.30177e-37)
(1.10951e-13 9.91592e-46 -1.60422e-51)
(9.48391e-14 -2.07272e-47 1.78881e-53)
(-6.58384e-14 -1.36183e-53 6.68121e-55)
(1.52759e-13 -5.60313e-55 -2.01125e-56)
(2.15672e-13 -2.93464e-63 2.36428e-58)
(-6.90181e-14 1.04319e-64 3.16599e-70)
(-3.63748e-14 -2.51585e-62 -2.57476e-68)
(-6.57819e-14 -7.37656e-70 -4.77388e-70)
(7.14019e-14 -5.04791e-61 -2.12459e-67)
(1.92396e-13 6.81446e-74 -2.01769e-68)
(2.19418e-13 1.25314e-79 1.13142e-73)
(-6.72334e-14 -4.61018e-79 -1.70652e-73)
(7.49158e-14 -1.19904e-80 1.35101e-73)
(-7.32532e-14 2.70129e-68 -1.86904e-73)
(-1.44762e-13 4.11107e-51 2.68844e-57)
(-3.84805e-14 -6.65425e-64 2.07687e-58)
(-1.62397e-13 -9.7855e-67 -3.46737e-61)
(2.16877e-13 8.94594e-69 1.30456e-65)
(4.21797e-14 2.21789e-67 -8.40927e-64)
(1.60442e-13 -1.66357e-55 5.47832e-61)
(1.90866e-15 9.61065e-68 1.20953e-62)
(3.70034e-14 1.013e-69 -3.03821e-64)
(-4.27406e-14 -3.55998e-72 5.01199e-66)
(7.28729e-14 -3.12384e-71 1.87518e-76)
(1.14992e-13 1.28759e-53 1.65839e-59)
(-2.40651e-14 -5.69873e-65 -1.7708e-59)
(2.00926e-13 -6.40703e-65 1.92447e-59)
(-5.21201e-14 -1.28974e-65 -7.0555e-60)
(-6.84473e-14 7.1796e-63 4.56243e-62)
(-2.50845e-13 -3.30074e-50 3.30486e-56)
(-3.17262e-14 1.2713e-62 -9.68822e-57)
(2.34504e-13 -3.70664e-65 2.2503e-59)
(7.09001e-14 -4.86957e-67 -8.43241e-61)
(-6.55146e-15 1.60792e-67 4.21494e-62)
(5.4458e-14 -1.15186e-30 2.54762e-31)
(-1.25197e-14 3.99301e-37 -3.15177e-32)
(-1.49628e-13 -2.5541e-40 3.57037e-34)
(-5.86823e-14 -1.51e-44 -3.11008e-50)
(3.78842e-14 3.68023e-46 1.11018e-51)
(-4.13422e-14 1.72352e-51 -1.53135e-53)
(-9.24348e-14 6.99289e-53 6.63497e-55)
(-1.02054e-14 1.53141e-62 -7.30995e-57)
(1.66841e-14 -8.09851e-66 -1.31762e-70)
(-3.00157e-15 2.7911e-63 4.19643e-69)
(-1.48189e-14 2.0542e-70 -2.28355e-69)
(-6.49201e-14 3.78427e-62 1.55557e-68)
(-3.91184e-14 -1.71941e-73 1.52258e-68)
(-9.10028e-14 4.79866e-82 -3.44106e-75)
(2.04276e-14 3.0801e-79 3.21333e-74)
(-1.20833e-13 1.61317e-79 -9.76124e-74)
(9.28702e-14 -1.25781e-67 1.80384e-73)
(1.51673e-13 -2.39718e-52 -7.17318e-59)
(5.26976e-16 6.9004e-65 -7.53056e-60)
(9.59794e-14 6.69597e-68 1.14615e-62)
(-1.15772e-13 -2.8629e-70 -3.81263e-66)
(-6.92937e-15 -1.29102e-68 4.9856e-65)
(8.49187e-15 1.56941e-56 5.92395e-63)
(-1.6534e-13 -9.87002e-69 -1.44294e-64)
(-1.73514e-14 -3.2168e-71 4.13605e-66)
(-1.56806e-14 1.8165e-73 -2.60328e-79)
(-3.89056e-14 4.262e-71 -1.02286e-76)
(-1.12876e-13 -1.08441e-53 -3.25844e-59)
(1.11416e-13 3.26685e-65 2.25161e-60)
(2.00022e-15 9.83494e-66 -1.56898e-60)
(-3.5302e-14 5.14762e-66 2.15708e-61)
(1.42746e-14 -2.88014e-65 -6.15421e-64)
(5.05079e-14 2.04485e-72 1.92595e-67)
(-1.13211e-14 -3.9733e-62 1.76374e-67)
(-1.9918e-14 2.31021e-66 -1.34936e-68)
(-1.34489e-14 1.78474e-67 1.40085e-72)
(1.56372e-14 -5.41674e-69 -2.73339e-75)
(-1.63059e-14 -3.98094e-31 2.84506e-30)
(-1.23081e-13 -1.68452e-36 -9.14663e-31)
(-1.79524e-13 7.5061e-43 -1.73874e-37)
(8.41746e-15 1.93344e-43 1.05555e-39)
(-1.30121e-14 -5.07648e-45 -3.36124e-41)
(8.18325e-14 -2.48733e-48 6.55146e-43)
(-6.94172e-14 -3.87658e-51 -4.11663e-45)
(4.79741e-14 -4.15632e-68 8.0526e-75)
(-1.74255e-14 2.67945e-67 5.40879e-73)
(7.9483e-14 -1.27793e-64 -1.61617e-70)
(5.22247e-14 -1.85128e-71 -3.86765e-72)
(-7.89516e-14 -3.31842e-63 2.57306e-69)
(-1.53942e-13 2.12528e-74 -1.35874e-70)
(1.08047e-13 1.1698e-80 -9.5163e-76)
(-8.88753e-14 -3.66995e-79 2.86047e-75)
(1.20464e-13 -4.07492e-80 -7.68772e-75)
(-7.23717e-14 1.63834e-67 -1.21032e-74)
(7.96084e-14 2.07459e-56 1.94053e-62)
(-3.45049e-14 -1.37854e-66 -1.00764e-63)
(-4.76584e-14 -3.07749e-70 1.06562e-68)
(1.67443e-14 -5.39895e-72 -5.55105e-67)
(4.98132e-15 7.89555e-70 9.85214e-65)
(-2.74199e-14 -1.7607e-57 1.75493e-64)
(1.0983e-13 2.33749e-68 -5.01501e-65)
(5.98576e-14 1.12903e-72 5.31829e-67)
(-2.57326e-14 1.67913e-74 -4.54332e-69)
(-4.42961e-14 -1.24534e-71 -3.11907e-72)
(-8.80732e-14 2.87097e-54 -9.81082e-60)
(-1.26896e-13 -1.2065e-64 -2.46538e-60)
(-1.16314e-13 -5.82514e-66 5.67398e-63)
(-4.52654e-15 -1.85053e-67 -5.10394e-66)
(-3.00348e-14 -5.07159e-70 -6.26837e-69)
(-8.61439e-14 -2.78231e-74 -3.01302e-69)
(8.1074e-15 5.37477e-63 -2.42193e-69)
(3.60063e-14 -2.34385e-65 3.28241e-71)
(-4.62901e-15 -1.59178e-68 7.51816e-74)
(-1.28981e-15 4.62325e-71 9.85911e-79)
(5.60272e-14 -3.02197e-31 -6.11484e-33)
(6.59076e-14 5.99375e-37 -5.0145e-32)
(1.73202e-13 1.23764e-37 2.94093e-36)
(-3.30142e-14 -2.28737e-42 -1.7853e-37)
(-5.59579e-14 4.94636e-44 1.05214e-38)
(-4.92569e-15 -9.759e-64 -3.95657e-69)
(-3.4943e-16 8.42086e-61 8.61341e-67)
(2.72099e-13 3.07415e-69 9.48986e-74)
(-3.50464e-14 -9.61018e-69 -4.80948e-73)
(4.36674e-14 2.72992e-66 5.33211e-72)
(-1.08573e-13 5.76488e-73 -3.34588e-71)
(2.38562e-13 5.82132e-65 1.88129e-70)
(-2.42689e-13 -3.8264e-75 -3.83051e-82)
(-1.53621e-13 -3.31599e-81 3.04264e-77)
(1.01659e-13 -8.1957e-82 -1.85672e-76)
(-6.25403e-14 2.10865e-80 8.5646e-76)
(1.2612e-13 -8.93572e-68 5.6118e-74)
(8.68986e-14 -1.71057e-56 2.27632e-62)
(-3.68853e-14 2.10855e-68 -4.47737e-64)
(2.75674e-14 8.18697e-72 8.5991e-66)
(-5.16345e-14 4.50943e-72 1.7709e-66)
(2.08948e-14 -1.42687e-70 -1.65798e-65)
(-2.05827e-14 3.19505e-58 3.0065e-65)
(-1.62582e-13 -1.58732e-69 2.07319e-75)
(-8.67874e-14 -6.69769e-74 -4.43419e-79)
(-9.28303e-15 5.0226e-77 9.8069e-79)
(-1.124e-14 8.13931e-73 -1.90385e-78)
(3.21413e-13 -1.22753e-53 -7.20314e-60)
(1.60702e-14 4.57493e-65 -3.67818e-71)
(1.16769e-13 1.42665e-66 3.52044e-72)
(-1.18604e-13 1.4164e-69 3.94849e-73)
(2.62898e-14 2.82414e-70 -2.55821e-74)
(3.49185e-14 1.41743e-74 5.11738e-80)
(-4.98965e-14 -2.52451e-64 -5.61779e-71)
(-4.99676e-15 6.98638e-66 2.43594e-73)
(-5.52695e-14 5.84318e-70 -1.99186e-76)
(9.77986e-15 -4.01173e-73 1.18126e-77)
(-1.17271e-13 3.60238e-31 2.22133e-31)
(1.71898e-13 2.87963e-38 -9.85854e-32)
(1.6669e-14 -1.04048e-37 3.47351e-32)
(4.00985e-14 -6.80678e-45 -1.75945e-50)
(6.51285e-14 -2.92098e-45 -3.40975e-51)
(-1.47789e-13 -3.58006e-48 1.11436e-51)
(-9.71392e-14 -4.29351e-60 -2.44387e-54)
(2.3514e-13 2.07236e-60 2.17092e-61)
(1.72049e-14 4.75548e-71 2.49554e-77)
(-3.68123e-13 3.22292e-83 7.69468e-79)
(-5.27157e-14 3.48985e-83 -4.4109e-81)
(1.03698e-13 -1.34543e-83 1.09515e-83)
(2.89889e-13 6.99833e-78 -1.79115e-83)
(-1.6102e-13 1.40715e-92 6.05035e-92)
(-3.08566e-14 5.17989e-97 -6.75008e-92)
(2.00075e-13 3.0254e-86 1.34042e-91)
(1.10274e-13 3.76027e-97 6.04665e-92)
(-7.97783e-14 2.47192e-83 4.32677e-90)
(-2.49704e-14 9.56048e-75 -4.24718e-69)
(2.11108e-13 1.19513e-73 3.37377e-68)
(3.69269e-14 -2.30714e-72 -7.68657e-67)
(-4.07928e-14 9.85493e-71 1.00758e-65)
(-8.42523e-14 -3.38011e-59 -1.02909e-64)
(1.11403e-13 1.36286e-83 8.99262e-78)
(5.34069e-14 -1.86037e-82 -1.55523e-76)
(-8.23511e-14 1.76811e-81 8.36306e-76)
(8.89256e-14 -2.04863e-74 -2.5114e-75)
(-8.38926e-15 4.23775e-80 6.34591e-76)
(6.66937e-15 -6.33815e-69 -3.3778e-74)
(-8.56515e-14 -1.42213e-72 3.81898e-78)
(-8.41434e-14 4.28001e-85 -1.2617e-79)
(-2.9535e-13 -8.79118e-75 -1.15338e-77)
(9.48537e-14 -5.81436e-75 4.8294e-72)
(1.14744e-13 1.54013e-65 -2.4688e-71)
(5.0542e-14 -6.98314e-78 3.80438e-72)
(1.13973e-13 1.06076e-79 -6.47443e-74)
(5.09238e-16 5.86373e-75 -3.99178e-80)
(2.9395e-14 -1.576e-30 2.54795e-36)
(-2.09348e-14 -9.70263e-38 -1.14329e-36)
(-1.07662e-13 6.57764e-38 1.38554e-37)
(-2.52466e-14 1.75528e-43 -5.12478e-41)
(3.61046e-15 1.17282e-44 5.50426e-42)
(4.23033e-15 1.46269e-46 2.41947e-50)
(1.02649e-14 7.93229e-48 -1.07231e-52)
(3.80905e-14 -1.68515e-59 -3.20967e-65)
(-1.39082e-14 -3.62405e-73 3.91606e-78)
(-1.86228e-13 -3.42529e-83 -1.30708e-77)
(-6.82435e-14 -2.85987e-83 6.0222e-77)
(-1.26002e-14 -7.54564e-84 -1.18486e-77)
(-1.22871e-13 -8.88827e-79 -3.49923e-85)
(1.28516e-13 -1.04188e-92 1.31371e-87)
(3.7703e-14 8.81716e-97 -3.2284e-90)
(-1.93899e-13 -1.38302e-86 1.23934e-91)
(-6.56892e-14 3.252e-98 -4.18894e-94)
(-2.9099e-13 8.36517e-86 -4.13288e-79)
(-1.27358e-13 9.08421e-76 7.69003e-74)
(1.2217e-13 -7.75084e-75 -4.36367e-73)
(-1.1438e-13 1.20091e-76 9.09758e-73)
(8.12477e-14 3.05061e-78 -8.56267e-73)
(4.52223e-14 4.47396e-66 -1.79279e-71)
(7.62838e-14 -2.77163e-84 -1.41638e-89)
(6.45916e-14 7.91918e-83 2.63279e-88)
(2.2841e-13 -2.74843e-82 -2.06858e-88)
(-1.26852e-13 1.27609e-98 7.86654e-104)
(-3.33593e-13 -1.94371e-81 5.95242e-86)
(6.34853e-14 4.97615e-70 -1.12374e-75)
(-4.06464e-14 9.54198e-73 4.45403e-77)
(1.41339e-14 7.99236e-86 -9.28952e-80)
(-4.04841e-14 4.05783e-76 8.12292e-82)
(2.16302e-13 4.04065e-76 1.62236e-81)
(-9.27591e-15 -1.10594e-95 1.37999e-89)
(1.30033e-14 1.08871e-79 4.16271e-86)
(4.64541e-14 -2.98489e-81 3.15001e-88)
(6.01515e-17 7.76714e-97 -1.01559e-90)
(-2.6828e-14 3.14224e-30 3.30124e-32)
(-1.28645e-14 1.28406e-38 -2.43685e-33)
(-9.38152e-15 -1.9743e-38 1.79374e-44)
(-2.03212e-14 -2.18943e-42 1.05672e-46)
(2.00095e-14 -2.08502e-44 3.39561e-51)
(-4.71231e-15 -3.42206e-45 -8.96208e-53)
(4.24006e-14 -1.87364e-47 3.97665e-53)
(-1.68818e-13 1.25381e-58 -3.00929e-53)
(3.29594e-14 2.94907e-75 3.70915e-81)
(2.27852e-14 3.81227e-84 9.57432e-84)
(-5.58035e-14 -2.28229e-83 -1.77942e-86)
(4.78068e-14 8.50274e-84 2.62706e-89)
(1.95393e-14 5.1524e-80 1.15064e-85)
(2.47176e-14 2.87527e-93 -7.12054e-95)
(1.16993e-13 -2.18968e-97 8.46886e-94)
(1.09516e-13 5.96027e-87 1.25008e-92)
(5.27764e-14 -4.39044e-97 -2.28624e-96)
(1.68625e-13 -3.57072e-85 5.24627e-83)
(-2.82178e-14 -3.49283e-76 -1.29594e-82)
(-3.78145e-14 1.72501e-75 9.6791e-82)
(-1.88582e-14 1.27922e-76 -9.85067e-83)
(-3.69866e-14 1.20247e-77 -2.20096e-83)
(-1.3116e-13 -5.9627e-89 9.31197e-84)
(-1.18912e-13 2.5162e-85 -8.99257e-92)
(7.74674e-14 -8.19848e-84 4.58592e-90)
(-1.25496e-13 2.26765e-83 6.96705e-90)
(-4.2223e-14 4.31588e-98 -1.61973e-91)
(4.94961e-14 2.08422e-81 5.83637e-79)
(6.65854e-14 -2.9128e-71 -2.00494e-77)
(3.41833e-14 -1.09139e-73 1.55318e-79)
(-3.4677e-15 8.47804e-88 1.18627e-87)
(-3.85965e-15 -6.31369e-78 2.75882e-85)
(-5.85857e-16 3.38767e-91 -4.11367e-94)
(-1.54944e-13 1.4827e-94 -6.41946e-89)
(1.5885e-13 -7.80005e-82 7.19102e-88)
(-3.63881e-14 5.05165e-83 2.3993e-89)
(4.40026e-15 -1.23073e-97 3.3791e-92)
(-1.30858e-14 1.37054e-31 1.0794e-30)
(-3.0388e-14 1.07725e-38 6.36138e-45)
(1.01618e-14 3.16451e-39 7.22563e-45)
(-1.01831e-14 1.8904e-41 -1.08816e-46)
(-1.16034e-14 1.30273e-44 5.4375e-50)
(4.57558e-14 6.40641e-44 2.1552e-49)
(-4.92593e-14 1.2948e-47 1.39005e-52)
(-6.43258e-14 -3.12509e-59 -1.94546e-53)
(1.46959e-13 -7.93527e-78 3.18481e-84)
(-9.42188e-14 -6.98423e-86 -6.56853e-86)
(2.68169e-14 1.66542e-83 -3.09519e-89)
(-5.4891e-14 -1.47936e-84 2.91549e-90)
(-2.98436e-13 -1.19276e-84 4.56406e-90)
(-1.79459e-13 -1.81355e-94 -7.09193e-92)
(-1.90268e-13 1.36913e-99 6.42355e-94)
(2.15339e-14 9.52962e-103 -1.90703e-97)
(-2.49058e-14 8.37975e-98 4.76764e-100)
(-7.93116e-15 2.64295e-86 -5.69861e-85)
(1.55034e-14 3.23234e-77 2.077e-83)
(-7.38613e-15 -2.68819e-76 4.42388e-83)
(2.08433e-14 -1.4449e-77 -4.62147e-83)
(3.68333e-14 -1.10156e-77 4.43894e-85)
(4.9661e-14 1.11846e-88 -8.25573e-84)
(1.15261e-13 -1.39003e-86 -3.21468e-92)
(-2.00203e-13 4.71001e-85 8.52857e-92)
(1.51463e-13 -1.28277e-84 -3.05053e-91)
(-5.05591e-14 2.83028e-99 -1.27951e-92)
(-1.25365e-13 -8.23144e-85 -2.02287e-80)
(-9.78371e-14 5.94836e-73 2.41401e-79)
(-4.6702e-14 4.69275e-75 -1.94389e-81)
(2.45497e-14 -1.75169e-87 3.48003e-82)
(-4.66535e-14 2.54734e-80 -1.5686e-86)
(5.37172e-14 -1.67885e-88 -3.00174e-95)
(9.44064e-14 -2.37779e-96 -4.58825e-94)
(-2.56158e-14 1.22065e-97 2.42755e-92)
(7.8597e-15 -5.68567e-85 -7.65884e-92)
(-2.30675e-14 5.64345e-100 -1.86578e-107)
(-4.38266e-14 9.46902e-31 -1.23593e-30)
(1.34295e-13 7.16004e-37 1.96401e-31)
(-9.90898e-14 -3.87825e-40 -3.68907e-35)
(3.34768e-14 -1.27339e-40 1.94245e-35)
(6.06123e-14 -4.24408e-41 -7.57726e-36)
(-1.13524e-13 -6.45238e-42 1.60992e-36)
(2.27178e-13 -5.83897e-44 -1.83576e-38)
(-1.24588e-14 5.35461e-60 2.3037e-67)
(-1.24763e-13 1.12428e-80 5.93076e-87)
(1.02013e-13 4.4464e-95 -3.50157e-90)
(4.26579e-15 -1.75248e-84 2.25451e-90)
(4.86622e-14 7.60891e-86 -2.40705e-91)
(1.16917e-13 3.44324e-85 3.49354e-91)
(-8.76136e-14 -4.84768e-98 6.88701e-93)
(4.63155e-14 1.3572e-101 -1.6786e-101)
(-5.08304e-14 -4.39191e-105 -4.22699e-99)
(6.43501e-15 -8.11588e-99 7.01284e-97)
(-9.60436e-14 -9.05149e-88 -6.6776e-94)
(-1.79753e-13 -2.60091e-80 2.95335e-86)
(1.47544e-15 2.592e-78 5.29335e-86)
(-4.38768e-14 6.92835e-79 7.15303e-85)
(5.54991e-14 1.40093e-79 -4.71567e-85)
(-2.52108e-13 -2.03465e-89 7.52599e-86)
(-1.06341e-13 3.35997e-88 2.31198e-94)
(1.41763e-13 -9.07286e-90 4.86449e-96)
(-1.20037e-13 2.37197e-87 1.48793e-94)
(9.70603e-14 -1.94837e-100 -4.02753e-96)
(1.26959e-13 4.60181e-86 -2.54361e-88)
(-2.52536e-14 2.49722e-92 1.00864e-85)
(4.33466e-14 -1.07754e-77 -2.71949e-84)
(-8.11645e-14 9.13217e-90 -1.20177e-84)
(1.14929e-13 3.23979e-92 7.25787e-87)
(-9.11801e-14 -3.76619e-96 2.41489e-100)
(-7.4668e-14 4.8828e-100 -2.65389e-99)
(6.61023e-14 -3.7254e-100 6.17578e-98)
(-4.28666e-14 -8.45531e-92 1.08884e-97)
(-1.52942e-14 -3.61212e-102 -2.14525e-99)
(2.33e-13 1.87219e-30 -6.2203e-30)
(1.856e-13 7.30332e-36 1.93301e-30)
(-1.41597e-13 -6.17822e-40 1.46467e-45)
(5.21323e-14 2.17996e-41 -7.38375e-46)
(6.58343e-14 -3.78101e-51 1.70288e-46)
(1.67186e-13 -4.53189e-51 -1.45302e-45)
(1.52587e-13 8.30303e-52 7.18309e-46)
(6.8601e-14 2.4604e-75 -1.28696e-76)
(-1.75504e-13 -2.03143e-68 -9.51427e-74)
(-6.27939e-16 -9.41031e-71 5.23643e-76)
(-1.38462e-13 -1.47333e-72 -9.23968e-78)
(5.60905e-14 6.16147e-77 -7.104e-79)
(1.73751e-13 6.71603e-98 1.35483e-103)
(-2.21682e-13 -1.28787e-107 -5.06762e-102)
(-3.0659e-14 4.891e-106 1.95795e-100)
(1.48084e-13 -1.66786e-105 -6.80879e-100)
(1.6965e-13 1.78893e-100 -4.57367e-97)
(-1.03645e-13 2.36635e-89 7.27593e-95)
(1.30471e-13 6.86374e-112 2.21452e-104)
(-1.36854e-13 -4.58929e-108 -1.92794e-102)
(-2.20127e-13 2.17538e-107 5.20029e-101)
(1.74328e-13 7.76408e-106 -1.0683e-99)
(-3.50672e-14 3.58346e-92 1.2693e-97)
(-2.51852e-13 -1.00054e-131 -3.38001e-137)
(3.74967e-14 1.8245e-136 1.79109e-138)
(-4.68025e-14 6.55567e-136 -2.607e-139)
(2.25011e-13 -2.96966e-135 4.88784e-140)
(1.07829e-13 1.69921e-117 1.0927e-121)
(-5.35396e-14 4.01486e-118 1.6485e-117)
(3.10814e-14 -9.62676e-114 -2.8353e-117)
(1.62941e-13 -3.96886e-113 1.34904e-117)
(1.01948e-13 2.31917e-110 -9.02902e-116)
(2.96921e-15 1.1347e-95 1.51339e-101)
(-9.32962e-14 -3.22049e-110 -1.51646e-115)
(-1.82784e-13 4.05877e-114 -2.31834e-118)
(3.35232e-14 -6.98014e-123 6.04974e-117)
(1.00359e-14 -1.95942e-106 1.31615e-111)
(2.12199e-14 1.06559e-31 -1.48971e-36)
(-1.50725e-14 8.72019e-36 5.004e-37)
(1.19712e-14 -2.86719e-41 -6.076e-39)
(-2.04882e-13 -2.25818e-42 -9.56952e-48)
(6.04415e-14 1.75658e-51 9.21795e-53)
(-2.28286e-14 -3.01975e-52 -7.43819e-53)
(1.21504e-14 1.25167e-51 1.335e-53)
(-2.79806e-13 -1.34635e-54 6.73676e-61)
(9.87329e-15 7.54053e-67 -1.25515e-74)
(6.44378e-14 6.08551e-69 1.05441e-74)
(-1.07742e-13 1.06884e-70 -4.75881e-76)
(2.0882e-13 -9.53574e-75 4.20102e-78)
(3.11997e-13 -7.19093e-80 -7.42861e-86)
(5.47677e-14 6.82171e-110 3.48712e-115)
(5.29763e-14 -1.48155e-107 -5.63586e-113)
(1.00886e-13 4.80149e-106 3.49945e-112)
(7.04146e-14 -2.01264e-119 1.39721e-113)
(5.0997e-14 -1.45591e-91 4.14549e-97)
(-7.76701e-14 -8.94716e-112 1.93652e-110)
(8.36837e-14 1.67677e-109 -3.44397e-106)
(-1.426e-13 5.29807e-109 3.03689e-105)
(4.65341e-15 -6.79392e-106 -9.25958e-101)
(-2.82386e-13 -1.26574e-93 4.32801e-99)
(-1.38001e-13 1.52221e-131 -7.13954e-139)
(-4.15379e-14 -5.3858e-135 -4.41435e-140)
(3.953e-14 -5.69671e-136 1.24515e-139)
(1.42499e-13 -8.62795e-135 8.03432e-140)
(2.89188e-13 4.57763e-116 1.13579e-113)
(-8.73292e-15 3.37209e-117 -1.4042e-111)
(2.79195e-13 2.30783e-112 5.01403e-110)
(-1.08095e-13 2.36169e-111 -1.21773e-108)
(-5.27769e-14 -2.16691e-109 4.31799e-107)
(-3.25239e-15 4.11354e-95 -4.34428e-103)
(3.26279e-14 -4.50912e-110 1.96611e-104)
(5.00713e-14 3.87383e-112 -1.69267e-106)
(6.21845e-14 1.51778e-123 8.96398e-130)
(-3.97617e-15 -1.10819e-128 1.44777e-131)
(-4.31381e-14 4.84733e-26 -1.92955e-32)
(7.93687e-14 -4.83807e-36 -2.51815e-32)
(-1.09734e-13 -3.97313e-40 3.22156e-35)
(4.92182e-14 5.98834e-44 1.09729e-49)
(2.25144e-14 -2.66167e-51 -3.50489e-51)
(-6.11848e-14 3.14171e-53 2.22513e-52)
(1.04216e-13 -3.28987e-52 -1.03212e-53)
(1.25828e-13 2.11231e-54 -5.07336e-60)
(-6.55698e-14 -1.87247e-65 -9.62193e-62)
(4.20533e-15 -4.27969e-67 1.92175e-63)
(-1.12181e-14 -6.75552e-69 -7.01288e-67)
(-4.02226e-14 1.95112e-72 4.25833e-69)
(-9.749e-14 3.6238e-77 -3.09335e-71)
(-3.79438e-14 -6.04822e-111 9.31415e-117)
(-7.59481e-14 4.06012e-109 -6.11933e-116)
(-1.13544e-13 -1.4055e-107 1.87899e-113)
(-1.28331e-13 3.39164e-120 -1.06905e-114)
(-2.34028e-13 3.67877e-122 1.07367e-116)
(1.52999e-16 2.08302e-114 1.15589e-119)
(-9.58455e-15 -9.91845e-112 -4.89411e-117)
(-4.04959e-15 -6.676e-111 3.83139e-115)
(-5.2913e-14 -1.1372e-107 -1.06433e-113)
(1.17329e-13 1.66311e-120 1.32313e-124)
(2.00298e-14 7.74083e-133 2.00501e-137)
(-1.29605e-13 7.77779e-134 1.14312e-137)
(2.21066e-13 -2.64673e-135 -5.21924e-140)
(3.51652e-14 1.00817e-134 -4.87537e-141)
(5.51594e-14 -5.35899e-116 -1.06055e-121)
(1.79245e-14 -1.12988e-118 -3.18518e-119)
(-7.81552e-14 -4.89444e-111 3.72792e-117)
(-5.71747e-15 -1.03076e-109 -1.0308e-115)
(1.05677e-13 2.00154e-108 7.97307e-115)
(-2.22827e-14 -4.5959e-95 4.74686e-102)
(-9.61758e-14 2.19087e-110 -8.02514e-117)
(-4.47143e-14 -2.26653e-113 3.6994e-119)
(-4.22733e-14 -2.3974e-124 6.09396e-120)
(-6.21632e-16 8.14223e-127 -1.8504e-121)
(9.90825e-15 -1.67403e-25 1.5795e-33)
(-8.22008e-14 4.26209e-37 -1.98262e-43)