/*--------------------------------*- C++ -*----------------------------------*\
| =========                 |                                                 |
| \\      /  F ield         | OpenFOAM: The Open Source CFD Toolbox           |
|  \\    /   O peration     | Version:  2.2.x                                 |
|   \\  /    A nd           | Web:      www.OpenFOAM.org                      |
|    \\/     M anipulation  |                                                 |
\*---------------------------------------------------------------------------*/
FoamFile
{
    version     2.0;
    format      ascii;
    class       labelFieldField;
    location    "0.01";
    object      collisionRecordsPairOrigIdOfOther;
}
// * * * * * * * * * * * * * * * * * * * * * * * * * * * * * * * * * * * * * //


2405
(
1(37)
2(38 2)
2(1 39)
2(40 4)
2(5 3)
3(42 4 6)
2(43 5)
2(8 44)
3(45 7 9)
3(46 10 8)
3(47 9 11)
2(10 48)
1(49)
2(50 14)
3(51 15 13)
2(14 16)
2(53 15)
2(18 54)
2(17 55)
2(20 56)
2(19 21)
3(58 22 20)
2(21 59)
2(60 24)
3(25 61 23)
3(24 26 62)
2(25 63)
2(28 64)
3(65 27 29)
2(30 28)
2(29 67)
2(68 32)
3(31 33 69)
2(70 32)
2(35 71)
2(34 72)
1(73)
2(38 0)
2(1 37)
2(2 40)
3(3 41 39)
2(40 42)
3(43 5 41)
2(6 42)
2(45 7)
3(46 8 44)
3(45 9 47)
3(10 48 46)
3(47 49 11)
3(12 48 86)
2(51 13)
3(14 50 52)
2(53 51)
3(16 52 54)
2(17 53)
2(56 18)
3(55 19 57)
2(58 56)
3(57 21 59)
2(58 22)
1(23)
2(24 62)
4(63 61 99 25)
3(100 62 26)
2(27 65)
3(66 28 64)
3(65 67 103)
3(68 30 66)
2(67 31)
2(106 32)
1(33)
2(34 72)
3(35 73 71)
3(72 36 110)
1(75)
2(74 112)
1(77)
3(78 114 76)
3(79 115 77)
3(78 80 116)
2(79 117)
2(118 82)
3(83 119 81)
3(120 82 84)
3(85 121 83)
2(84 86)
2(85 49)
2(124 88)
3(125 89 87)
2(126 88)
1(127)
0()
2(93 129)
3(92 130 94)
3(131 95 93)
3(94 132 96)
2(133 95)
2(98 134)
3(97 135 99)
4(100 136 98 62)
4(99 101 63 137)
1(100)
2(103 139)
4(140 102 104 66)
3(105 103 141)
2(104 142)
1(69)
1(144)
2(145 109)
3(146 110 108)
2(109 73)
2(148 112)
4(149 111 75 113)
3(112 114 150)
4(115 151 77 113)
4(114 152 116 78)
3(115 79 153)
2(154 80)
3(155 119 81)
4(120 156 82 118)
4(119 157 83 121)
4(122 158 84 120)
3(121 159 123)
2(122 160)
3(125 161 87)
4(162 88 124 126)
3(163 89 125)
2(90 164)
2(165 129)
3(166 92 128)
3(167 93 131)
4(132 168 94 130)
4(131 95 133 169)
3(170 132 96)
2(171 97)
3(136 172 98)
4(173 99 137 135)
4(174 136 138 100)
2(137 175)
3(140 102 176)
4(139 177 103 141)
3(178 140 104)
2(179 105)
2(180 144)
3(181 143 107)
3(182 108 146)
4(183 109 147 145)
2(184 146)
3(111 185 149)
4(112 186 150 148)
3(187 149 113)
3(152 188 114)
4(115 151 189 153)
4(154 152 116 190)
4(117 153 191 155)
3(118 154 192)
3(119 157 193)
4(120 156 194 158)
4(121 195 157 159)
4(122 196 160 158)
2(159 123)
3(198 162 124)
4(125 199 161 163)
4(126 164 162 200)
3(201 163 127)
2(166 128)
4(129 203 167 165)
3(130 166 204)
3(131 205 169)
3(168 206 132)
1(133)
3(134 208 172)
3(209 171 135)
3(136 210 174)
4(137 173 211 175)
2(138 174)
3(177 213 139)
4(140 176 214 178)
4(141 215 179 177)
4(142 216 178 180)
3(143 217 179)
3(144 182 218)
3(145 219 181)
3(146 220 184)
3(147 183 221)
3(222 148 186)
3(223 149 185)
2(224 150)
1(151)
3(152 190 226)
4(189 227 153 191)
4(228 154 192 190)
3(191 229 155)
2(230 156)
3(231 157 195)
3(196 194 158)
4(195 159 197 233)
2(234 196)
2(161 199)
4(162 198 200 236)
4(199 201 163 237)
3(238 164 200)
2(203 239)
4(166 202 240 204)
4(241 167 205 203)
3(204 168 206)
4(243 169 207 205)
1(206)
3(245 171 209)
4(210 172 208 246)
4(209 247 173 211)
3(248 174 210)
2(213 249)
4(250 176 212 214)
4(177 215 213 251)
4(214 178 252 216)
2(179 215)
3(180 218 254)
2(181 217)
3(220 256 182)
4(219 183 221 257)
3(258 184 220)
2(185 259)
3(260 186 224)
3(261 187 223)
0()
2(227 189)
3(228 190 226)
3(191 227 229)
3(228 192 266)
1(193)
2(194 232)
3(233 231 269)
3(232 234 196)
3(197 233 271)
1(236)
2(235 199)
2(238 200)
2(201 237)
2(240 202)
2(239 203)
2(204 242)
2(243 241)
3(242 206 244)
2(281 243)
2(246 208)
3(245 247 209)
3(210 248 246)
2(247 211)
2(250 212)
3(251 213 249)
3(250 252 214)
3(253 215 251)
1(252)
3(291 217 255)
1(254)
2(219 257)
2(220 256)
1(221)
2(260 222)
3(261 223 259)
3(260 224 298)
1(263)
3(300 262 264)
3(301 265 263)
3(264 302 266)
2(265 229)
1(304)
1(305)
2(270 232)
3(269 271 307)
2(270 234)
2(309 273)
3(310 274 272)
2(311 273)
1(312)
1(313)
1(314)
2(279 315)
3(278 280 316)
3(281 317 279)
4(244 280 318 282)
3(319 283 281)
3(320 282 284)
1(283)
1(322)
2(323 287)
3(288 324 286)
3(325 287 289)
3(326 290 288)
3(289 327 291)
2(254 290)
1(329)
2(330 294)
3(331 293 295)
2(332 294)
2(297 333)
2(296 334)
1(261)
1(336)
3(337 263 301)
4(338 264 302 300)
4(339 301 303 265)
2(302 340)
2(341 267)
3(306 268 342)
3(307 343 305)
4(306 344 270 308)
1(307)
3(272 310 346)
4(347 309 273 311)
4(348 274 312 310)
3(349 311 275)
3(276 350 314)
4(351 277 315 313)
3(352 314 278)
3(317 353 279)
4(316 354 280 318)
4(355 281 317 319)
4(356 320 282 318)
4(321 357 319 283)
2(320 358)
2(359 285)
3(360 324 286)
4(325 287 323 361)
4(324 288 362 326)
4(363 289 327 325)
3(326 290 364)
1(329)
3(328 292 366)
3(367 293 331)
4(368 294 332 330)
3(369 295 331)
3(370 296 334)
4(371 335 297 333)
1(334)
3(337 373 299)
4(336 338 300 374)
4(301 337 339 375)
4(302 338 376 340)
2(339 303)
3(304 342 378)
4(341 343 305 379)
4(306 342 380 344)
4(307 381 343 345)
2(382 344)
3(383 347 309)
4(348 346 310 384)
4(347 311 349 385)
3(312 386 348)
2(351 313)
4(314 388 350 352)
4(315 389 351 353)
3(316 390 352)
3(317 391 355)
4(318 392 354 356)
4(319 393 357 355)
3(320 356 394)
3(359 321 395)
3(322 358 396)
3(323 361 397)
4(362 360 398 324)
4(361 363 399 325)
3(326 362 400)
2(401 327)
1(366)
4(329 365 403 367)
3(330 404 366)
2(331 405)
2(332 406)
3(407 333 371)
3(408 370 334)
1(373)
4(374 410 336 372)
4(373 411 375 337)
3(374 376 338)
2(375 339)
2(414 378)
3(415 341 377)
3(416 380 342)
3(417 343 379)
3(418 344 382)
3(345 419 381)
3(420 346 384)
4(383 385 347 421)
4(422 386 384 348)
3(423 349 385)
2(388 424)
3(425 351 387)
3(426 352 390)
4(391 389 353 427)
4(390 428 392 354)
4(393 355 391 429)
4(356 392 430 394)
4(395 431 357 393)
4(394 396 432 358)
3(359 395 433)
3(398 434 360)
4(399 361 435 397)
4(398 436 362 400)
4(437 401 399 363)
3(438 364 400)
2(403 439)
4(440 404 402 366)
4(441 367 403 405)
3(442 368 404)
2(443 369)
3(370 408 444)
2(371 407)
2(446 410)
3(373 411 409)
2(374 410)
1(413)
2(450 412)
2(415 377)
4(378 416 452 414)
3(379 415 417)
3(380 418 416)
2(381 417)
1(382)
2(383 421)
3(422 420 384)
3(421 385 423)
2(386 422)
2(425 387)
3(388 424 426)
3(389 425 427)
3(428 390 426)
4(391 427 465 429)
3(466 392 428)
1(393)
2(394 432)
3(431 433 395)
3(432 470 396)
1(397)
2(436 398)
3(399 435 437)
3(400 436 438)
2(401 437)
2(476 402)
3(403 477 441)
2(404 440)
2(405 443)
3(406 442 480)
1(407)
2(446 482)
3(409 483 445)
2(484 448)
3(449 447 485)
2(486 448)
1(413)
1(488)
3(415 453 489)
3(454 490 452)
3(453 491 455)
2(454 492)
1(493)
2(458 494)
3(459 495 457)
2(458 496)
1(497)
0()
2(463 499)
3(464 500 462)
3(501 463 465)
3(466 428 464)
2(465 429)
2(504 468)
3(469 467 505)
3(506 470 468)
3(469 471 433)
1(470)
1(509)
1(510)
2(511 475)
2(512 474)
3(513 477 439)
3(476 478 440)
3(479 515 477)
2(478 516)
1(443)
2(482 518)
4(481 483 519 445)
3(482 446 520)
3(485 521 447)
3(484 522 448)
2(449 523)
1(524)
2(525 451)
3(490 526 452)
4(489 491 453 527)
4(528 490 454 492)
3(491 529 455)
3(456 494 530)
4(531 493 495 457)
4(458 496 532 494)
4(495 533 497 459)
3(460 496 534)
1(535)
3(536 500 462)
4(537 499 501 463)
4(464 502 538 500)
2(501 539)
0()
2(467 541)
3(542 506 468)
3(469 543 505)
1(544)
1(545)
3(510 546 472)
4(509 547 511 473)
4(474 510 548 512)
4(549 513 511 475)
2(476 512)
2(551 515)
3(478 552 514)
3(553 479 517)
2(554 516)
3(555 519 481)
3(556 482 518)
3(557 521 483)
4(522 484 520 558)
4(521 559 485 523)
4(560 524 486 522)
4(561 487 523 525)
3(488 524 562)
3(563 527 489)
4(526 528 564 490)
4(529 491 565 527)
3(566 528 492)
1(493)
3(568 532 494)
4(533 569 495 531)
2(532 496)
2(571 497)
3(572 536 498)
4(573 499 537 535)
4(574 536 500 538)
4(575 501 539 537)
4(576 538 540 502)
1(539)
3(578 542 504)
4(543 541 505 579)
4(542 580 544 506)
3(543 581 507)
2(546 508)
4(583 547 509 545)
3(546 584 510)
3(585 549 511)
3(586 512 548)
1(587)
3(588 514 552)
3(551 515 553)
4(590 516 554 552)
3(591 553 517)
2(518 592)
2(519 557)
4(520 556 558 594)
3(557 595 521)
2(522 560)
3(523 559 597)
2(524 562)
3(525 561 599)
3(526 564 600)
3(563 565 527)
4(566 564 602 528)
3(529 565 603)
2(568 604)
3(531 567 569)
4(532 570 606 568)
3(569 571 607)
3(534 608 570)
3(573 609 535)
3(536 572 610)
3(537 611 575)
4(538 574 612 576)
3(539 577 575)
2(576 614)
3(541 579 615)
3(580 578 542)
3(543 579 581)
3(618 544 580)
2(583 619)
2(546 582)
2(547 585)
3(548 584 622)
2(549 587)
2(550 586)
3(551 625 589)
3(590 626 588)
2(553 589)
2(554 628)
3(555 593 629)
1(592)
2(557 595)
4(596 558 632 594)
2(595 597)
3(598 560 596)
1(597)
1(562)
2(601 563)
2(600 602)
3(603 601 565)
2(602 566)
2(567 605)
1(604)
2(569 607)
3(608 606 570)
4(645 571 607 609)
3(646 572 608)
2(611 573)
3(610 574 612)
3(613 611 575)
2(612 614)
3(613 577 651)
2(578 616)
2(615 617)
2(618 616)
2(617 581)
2(620 582)
2(621 619)
2(620 622)
3(623 585 621)
1(622)
1(661)
2(588 626)
3(625 589 627)
2(628 626)
2(627 591)
2(592 630)
2(629 667)
1(632)
4(631 595 633 669)
3(632 670 634)
3(671 635 633)
2(634 672)
0()
2(638 674)
3(675 637 639)
3(640 676 638)
2(677 639)
0()
2(643 679)
3(644 642 680)
3(643 681 645)
3(646 644 608)
3(645 609 683)
2(684 648)
3(649 647 685)
3(686 648 650)
3(649 687 651)
2(650 614)
2(653 689)
3(652 690 654)
3(655 691 653)
2(654 692)
1(693)
2(658 694)
3(695 657 659)
3(696 660 658)
2(659 697)
2(698 624)
1(699)
2(700 664)
2(701 663)
0()
1(667)
4(666 704 630 668)
2(705 667)
2(706 632)
3(707 671 633)
4(670 672 708 634)
3(709 671 635)
1(710)
3(711 675 637)
4(638 676 712 674)
4(677 713 675 639)
3(676 714 640)
1(715)
2(642 716)
3(717 681 643)
4(644 718 682 680)
2(681 719)
1(646)
2(647 721)
3(722 686 648)
3(649 723 685)
3(724 650 688)
1(687)
3(726 690 652)
4(691 727 689 653)
4(690 728 692 654)
3(729 691 655)
3(730 694 656)
4(731 693 657 695)
4(732 658 694 696)
4(659 733 695 697)
3(734 660 696)
2(661 735)
3(736 662 700)
3(663 737 699)
3(738 664 702)
2(739 701)
2(740 704)
4(667 741 705 703)
3(742 668 704)
3(707 743 669)
4(706 744 670 708)
4(709 671 707 745)
3(746 672 708)
2(711 673)
4(712 748 674 710)
4(711 749 675 713)
4(750 676 714 712)
4(751 677 715 713)
2(714 678)
3(753 717 679)
4(716 718 680 754)
4(755 681 719 717)
4(756 718 720 682)
1(719)
3(758 722 684)
3(721 685 723)
4(724 760 686 722)
2(723 687)
1(762)
3(763 727 689)
3(764 690 726)
3(765 691 729)
3(728 766 692)
2(767 693)
2(732 694)
3(731 769 695)
3(770 734 696)
3(771 697 733)
2(698 772)
3(773 699 737)
4(774 700 736 738)
4(775 701 739 737)
3(738 776 702)
2(777 703)
2(704 742)
3(705 741 779)
3(780 706 744)
3(707 745 743)
4(782 744 746 708)
3(783 709 745)
2(748 784)
3(711 747 749)
4(750 712 786 748)
3(751 713 749)
2(750 714)
1(789)
3(790 754 716)
4(755 753 791 717)
3(718 754 756)
2(719 755)
2(794 758)
4(795 721 759 757)
3(796 760 758)
4(723 759 797 761)
2(760 798)
3(763 799 725)
3(726 762 764)
3(765 727 763)
4(764 802 728 766)
3(803 729 765)
3(730 768 804)
3(767 769 805)
3(732 770 768)
4(769 733 807 771)
3(734 772 770)
2(735 771)
2(736 774)
4(775 737 773 811)
3(774 738 776)
2(739 775)
3(740 778 814)
1(777)
3(816 780 742)
3(743 781 779)
2(780 782)
3(745 783 781)
2(746 782)
2(785 747)
2(786 784)
3(785 749 787)
2(788 786)
1(787)
3(752 790 826)
3(753 791 789)
3(792 790 754)
1(791)
0()
2(757 831)
2(758 796)
3(759 795 797)
3(798 796 760)
3(797 799 761)
3(836 762 798)
1(801)
2(800 802)
3(765 803 801)
2(766 802)
2(805 767)
3(806 804 768)
2(805 807)
3(808 770 806)
2(807 809)
1(808)
0()
2(812 774)
2(813 811)
1(812)
3(851 815 777)
2(814 852)
2(779 817)
3(818 854 816)
3(855 817 819)
2(820 818)
2(819 857)
0()
1(859)
2(860 824)
3(861 823 825)
2(862 824)
2(827 789)
3(826 828 864)
3(829 827 865)
3(828 830 866)
2(831 829)
2(830 794)
2(869 833)
2(834 832)
3(871 833 835)
3(834 872 836)
3(873 799 835)
2(838 874)
2(837 875)
2(840 876)
2(839 877)
1(842)
3(843 879 841)
3(880 842 844)
2(843 845)
2(882 844)
1(883)
1(884)
2(885 849)
3(886 850 848)
2(849 887)
3(852 814 888)
3(851 889 815)
1(854)
4(891 855 853 817)
4(892 818 854 856)
3(857 893 855)
4(856 894 820 858)
2(857 895)
3(860 896 822)
4(859 823 897 861)
4(862 860 898 824)
4(861 899 825 863)
1(862)
3(827 865 901)
4(828 864 902 866)
4(903 867 829 865)
2(866 904)
1(905)
3(870 906 832)
3(869 907 871)
4(908 834 872 870)
4(909 871 873 835)
2(836 872)
3(875 911 837)
3(874 838 912)
3(877 839 913)
3(876 914 840)
2(879 915)
3(842 878 916)
3(917 843 881)
3(882 918 880)
3(881 919 845)
2(920 846)
3(885 921 847)
4(848 884 922 886)
4(849 887 923 885)
3(886 924 850)
3(889 851 925)
3(926 852 888)
2(927 891)
4(928 892 854 890)
3(891 929 855)
3(930 856 894)
4(931 857 893 895)
3(932 894 858)
3(933 859 897)
4(860 898 896 934)
4(935 899 897 861)
4(898 936 862 900)
2(937 899)
3(938 864 902)
3(865 903 901)
4(940 866 904 902)
3(941 903 867)
2(906 868)
3(943 869 905)
2(944 870)
3(945 909 871)
4(908 946 872 910)
2(947 909)
3(948 874 912)
4(949 913 911 875)
4(912 950 914 876)
4(951 877 913 915)
2(878 914)
3(953 917 879)
4(916 918 880 954)
4(955 881 917 919)
4(956 882 918 920)
3(883 919 957)
3(958 884 922)
4(923 959 885 921)
4(922 960 886 924)
3(961 887 923)
3(962 926 888)
3(889 963 925)
3(928 964 890)
2(891 927)
3(892 966 930)
4(893 929 967 931)
3(894 932 930)
4(931 969 895 933)
4(896 970 934 932)
4(971 935 933 897)
3(898 972 934)
3(899 973 937)
3(936 974 900)
3(901 975 939)
3(940 976 938)
4(903 939 977 941)
3(904 978 940)
1(979)
3(906 980 944)
4(907 943 945 981)
3(908 982 944)
2(909 947)
4(946 984 910 948)
3(911 985 947)
3(912 950 986)
4(913 949 951 987)
3(914 988 950)
2(989 953)
2(916 952)
3(991 955 917)
4(918 954 992 956)
4(919 993 957 955)
2(920 956)
3(921 995 959)
4(922 996 958 960)
4(923 959 961 997)
3(924 960 998)
2(925 999)
3(1000 926 964)
3(1001 927 963)
1(966)
3(965 929 967)
3(968 930 966)
1(967)
2(1006 932)
2(971 933)
3(970 934 972)
3(973 971 935)
2(972 936)
3(1011 937 975)
3(938 976 974)
3(975 939 977)
3(978 976 940)
3(977 941 979)
3(942 978 1016)
2(943 981)
3(980 944 982)
3(983 945 981)
2(982 984)
3(1021 947 983)
1(948)
2(949 987)
3(988 986 950)
2(951 987)
2(1026 952)
1(991)
3(990 954 992)
3(993 955 991)
3(992 956 994)
2(1031 993)
2(958 996)
3(959 995 997)
3(996 998 960)
2(961 997)
2(1000 962)
3(1001 963 999)
3(1000 964 1038)
2(1039 1003)
3(1040 1002 1004)
3(1041 1005 1003)
3(1004 1042 1006)
2(969 1005)
2(1008 1044)
3(1009 1045 1007)
3(1008 1010 1046)
2(1009 1047)
1(974)
2(1013 1049)
3(1050 1012 1014)
3(1015 1051 1013)
3(1016 1052 1014)
2(1015 979)
2(1054 1018)
2(1017 1019)
2(1056 1018)
2(1057 1021)
3(984 1020 1058)
2(1023 1059)
3(1024 1022 1060)
3(1023 1061 1025)
3(1024 1062 1026)
2(989 1025)
2(1028 1064)
3(1029 1027 1065)
3(1028 1066 1030)
3(1029 1067 1031)
2(994 1030)
2(1033 1069)
3(1034 1032 1070)
2(1033 1071)
1(1072)
2(1037 1073)
3(1038 1036 1074)
3(1037 1001 1075)
2(1002 1076)
3(1077 1003 1041)
3(1078 1004 1040)
2(1005 1079)
0()
3(1045 1081 1007)
4(1044 1046 1008 1082)
3(1083 1045 1009)
2(1010 1084)
1(1049)
4(1086 1050 1048 1012)
4(1087 1013 1049 1051)
4(1088 1014 1050 1052)
3(1089 1015 1051)
1(1054)
4(1053 1091 1055 1017)
3(1092 1054 1056)
4(1093 1019 1057 1055)
4(1094 1056 1020 1058)
3(1095 1057 1021)
2(1096 1022)
3(1061 1023 1097)
4(1060 1098 1062 1024)
4(1099 1061 1063 1025)
1(1062)
2(1101 1027)
3(1066 1028 1102)
4(1103 1065 1067 1029)
4(1104 1066 1068 1030)
2(1067 1105)
2(1106 1032)
3(1071 1107 1033)
4(1070 1108 1072 1034)
3(1109 1071 1035)
3(1110 1074 1036)
4(1111 1037 1073 1075)
2(1074 1038)
3(1077 1113 1039)
4(1040 1076 1078 1114)
3(1041 1077 1079)
3(1078 1116 1042)
2(1117 1081)
4(1044 1082 1118 1080)
3(1081 1083 1045)
4(1046 1084 1120 1082)
2(1083 1047)
1(1086)
4(1049 1123 1087 1085)
4(1050 1124 1088 1086)
4(1051 1089 1087 1125)
3(1052 1126 1088)
1(1091)
3(1054 1128 1090)
2(1055 1129)
3(1094 1130 1056)
3(1093 1131 1057)
1(1058)
3(1059 1133 1097)
4(1098 1096 1060 1134)
4(1097 1061 1099 1135)
3(1062 1098 1136)
0()
3(1064 1102 1138)
4(1101 1139 1103 1065)
4(1066 1102 1104 1140)
3(1067 1141 1103)
1(1068)
3(1069 1143 1107)
4(1106 1144 1108 1070)
4(1071 1145 1109 1107)
3(1072 1108 1146)
3(1073 1147 1111)
3(1110 1148 1074)
2(1149 1113)
4(1076 1150 1114 1112)
4(1115 1151 1077 1113)
2(1114 1152)
2(1079 1117)
4(1118 1080 1154 1116)
3(1081 1117 1119)
3(1120 1156 1118)
2(1083 1119)
1(1158)
0()
2(1086 1124)
3(1087 1123 1125)
4(1124 1162 1126 1088)
3(1163 1089 1125)
2(1128 1164)
3(1127 1091 1165)
3(1092 1166 1130)
3(1129 1093 1167)
3(1094 1168 1132)
2(1131 1169)
3(1096 1170 1134)
3(1135 1133 1097)
4(1134 1098 1172 1136)
3(1173 1099 1135)
2(1138 1174)
4(1101 1175 1139 1137)
4(1102 1176 1140 1138)
4(1177 1139 1141 1103)
3(1178 1104 1140)
2(1143 1179)
4(1180 1106 1142 1144)
3(1145 1107 1143)
2(1144 1108)
2(1183 1109)
2(1110 1184)
1(1111)
3(1150 1112 1186)
3(1113 1149 1151)
3(1114 1150 1152)
3(1153 1115 1151)
1(1152)
2(1117 1191)
0()
2(1119 1157)
2(1158 1156)
4(1157 1121 1159 1195)
2(1158 1196)
1(1161)
2(1160 1162)
3(1163 1125 1161)
3(1126 1162 1164)
3(1163 1201 1127)
2(1166 1128)
3(1165 1167 1129)
3(1168 1166 1130)
3(1167 1131 1169)
2(1168 1132)
2(1133 1171)
2(1170 1172)
3(1173 1135 1171)
2(1172 1136)
2(1175 1137)
3(1176 1138 1174)
3(1175 1139 1177)
3(1178 1140 1176)
2(1141 1177)
2(1180 1142)
3(1143 1181 1179)
1(1180)
1(1183)
2(1182 1146)
2(1185 1147)
2(1184 1222)
1(1149)
2(1188 1224)
3(1189 1187 1225)
3(1188 1226 1190)
2(1189 1227)
3(1154 1192 1228)
3(1193 1229 1191)
3(1230 1192 1194)
3(1195 1231 1193)
3(1232 1194 1158)
2(1233 1159)
2(1234 1198)
3(1235 1197 1199)
2(1236 1198)
2(1237 1201)
3(1238 1164 1200)
2(1203 1239)
3(1204 1240 1202)
3(1203 1205 1241)
2(1204 1242)
0()
2(1208 1244)
3(1245 1207 1209)
3(1210 1246 1208)
2(1209 1247)
1(1248)
2(1213 1249)
3(1214 1250 1212)
2(1213 1251)
1(1252)
2(1253 1217)
3(1218 1254 1216)
3(1217 1255 1219)
3(1220 1256 1218)
2(1257 1219)
2(1258 1222)
3(1221 1185 1259)
1(1260)
3(1261 1225 1187)
4(1262 1226 1224 1188)
4(1225 1227 1263 1189)
4(1228 1226 1190 1264)
2(1227 1191)
2(1266 1192)
3(1267 1193 1231)
4(1232 1268 1230 1194)
3(1231 1195 1269)
1(1196)
3(1271 1197 1235)
4(1272 1198 1234 1236)
3(1199 1273 1235)
3(1274 1238 1200)
3(1201 1275 1237)
3(1276 1202 1240)
4(1241 1277 1203 1239)
3(1278 1240 1204)
2(1279 1205)
2(1244 1280)
4(1281 1207 1245 1243)
4(1246 1282 1208 1244)
3(1245 1283 1209)
2(1284 1210)
3(1285 1249 1211)
4(1286 1248 1250 1212)
4(1287 1251 1213 1249)
4(1250 1288 1252 1214)
3(1251 1289 1215)
2(1216 1254)
4(1291 1253 1255 1217)
4(1292 1218 1254 1256)
4(1293 1219 1257 1255)
3(1294 1220 1256)
3(1259 1221 1295)
3(1296 1258 1222)
3(1297 1261 1223)
4(1298 1262 1224 1260)
3(1261 1299 1225)
3(1300 1226 1264)
4(1301 1227 1263 1265)
2(1302 1264)
3(1303 1267 1229)
4(1266 1304 1230 1268)
4(1305 1231 1269 1267)
3(1306 1232 1268)
1(1307)
3(1308 1234 1272)
3(1309 1235 1271)
3(1310 1236 1274)
3(1311 1273 1237)
2(1238 1312)
3(1313 1239 1277)
4(1314 1276 1240 1278)
4(1315 1279 1241 1277)
3(1278 1316 1242)
3(1317 1281 1243)
4(1318 1244 1282 1280)
4(1319 1281 1245 1283)
4(1320 1246 1284 1282)
3(1321 1283 1247)
3(1322 1248 1286)
3(1287 1249 1285)
4(1286 1324 1250 1288)
3(1289 1251 1287)
2(1288 1252)
2(1327 1291)
4(1328 1292 1254 1290)
3(1329 1255 1291)
3(1330 1256 1294)
3(1331 1293 1257)
3(1332 1258 1296)
3(1259 1333 1295)
3(1298 1334 1260)
2(1261 1297)
3(1262 1300 1336)
3(1263 1299 1301)
4(1264 1300 1302 1338)
3(1301 1339 1265)
2(1266 1304)
4(1267 1305 1303 1341)
4(1268 1306 1342 1304)
3(1269 1305 1343)
2(1270 1308)
4(1271 1307 1309 1345)
4(1272 1346 1310 1308)
3(1273 1309 1311)
3(1274 1348 1310)
2(1275 1313)
3(1276 1312 1314)
4(1277 1315 1351 1313)
3(1278 1314 1316)
3(1279 1353 1315)
3(1318 1354 1280)
3(1281 1317 1319)
3(1282 1320 1318)
3(1283 1319 1357)
2(1284 1358)
2(1285 1323)
3(1322 1324 1360)
4(1287 1325 1361 1323)
3(1324 1362 1326)
2(1363 1325)
3(1328 1364 1290)
2(1291 1327)
3(1292 1330 1366)
3(1293 1329 1331)
3(1294 1368 1330)
2(1295 1369)
3(1370 1296 1334)
3(1371 1297 1333)
0()
2(1337 1299)
2(1338 1336)
3(1375 1301 1337)
3(1376 1302 1340)
2(1341 1339)
3(1340 1342 1304)
2(1305 1341)
1(1306)
1(1345)
3(1346 1344 1308)
3(1309 1345 1347)
2(1346 1348)
2(1311 1347)
2(1386 1350)
2(1351 1349)
3(1350 1314 1352)
2(1353 1351)
3(1352 1316 1354)
2(1353 1317)
1(1356)
2(1355 1357)
3(1320 1358 1356)
2(1357 1321)
1(1360)
3(1361 1359 1323)
3(1360 1362 1324)
3(1363 1325 1361)
3(1326 1362 1364)
3(1401 1327 1363)
0()
2(1329 1367)
2(1366 1368)
2(1331 1367)
2(1370 1332)
3(1371 1333 1369)
3(1370 1334 1408)
2(1409 1373)
3(1410 1372 1374)
2(1375 1373)
3(1374 1338 1412)
2(1339 1413)
2(1378 1414)
3(1377 1415 1379)
2(1416 1378)
1(1417)
1(1418)
2(1419 1383)
2(1420 1382)
2(1385 1421)
3(1386 1384 1422)
2(1349 1385)
2(1424 1388)
2(1389 1387)
3(1426 1388 1390)
3(1389 1427 1391)
1(1390)
2(1393 1429)
1(1392)
2(1395 1431)
2(1394 1432)
2(1433 1397)
3(1398 1434 1396)
3(1435 1397 1399)
3(1436 1400 1398)
2(1399 1437)
1(1364)
1(1439)
2(1440 1404)
3(1405 1441 1403)
2(1404 1442)
2(1407 1443)
2(1406 1444)
3(1445 1409 1371)
4(1410 1446 1372 1408)
4(1409 1411 1447 1373)
3(1410 1448 1412)
3(1449 1411 1375)
3(1450 1414 1376)
4(1415 1451 1377 1413)
4(1414 1416 1452 1378)
3(1415 1379 1453)
2(1454 1380)
2(1455 1381)
3(1420 1456 1382)
4(1421 1419 1457 1383)
4(1420 1422 1384 1458)
3(1421 1459 1385)
0()
3(1425 1461 1387)
3(1424 1462 1426)
4(1463 1389 1427 1425)
4(1464 1426 1390 1428)
2(1465 1427)
3(1430 1466 1392)
2(1429 1467)
3(1432 1468 1394)
3(1431 1469 1395)
3(1470 1434 1396)
4(1435 1471 1397 1433)
4(1434 1472 1436 1398)
4(1399 1435 1473 1437)
3(1474 1400 1436)
2(1475 1439)
3(1476 1402 1438)
3(1477 1403 1441)
4(1404 1442 1478 1440)
3(1405 1479 1441)
2(1480 1406)
2(1407 1481)
3(1408 1482 1446)
4(1447 1483 1409 1445)
3(1446 1410 1484)
3(1485 1449 1411)
3(1412 1448 1486)
3(1413 1487 1451)
4(1488 1414 1452 1450)
3(1489 1451 1415)
3(1454 1490 1416)
3(1453 1491 1417)
3(1456 1492 1418)
4(1455 1493 1419 1457)
4(1494 1420 1458 1456)
4(1459 1421 1457 1495)
3(1422 1496 1458)
1(1461)
4(1424 1498 1460 1462)
4(1425 1463 1499 1461)
4(1464 1462 1426 1500)
3(1463 1501 1427)
3(1428 1466 1502)
4(1429 1503 1467 1465)
3(1466 1504 1430)
3(1505 1469 1431)
4(1506 1432 1468 1470)
3(1433 1469 1507)
3(1472 1508 1434)
4(1471 1509 1435 1473)
4(1510 1474 1472 1436)
3(1437 1511 1473)
3(1512 1438 1476)
4(1513 1439 1477 1475)
3(1476 1514 1440)
2(1515 1441)
2(1442 1516)
2(1443 1517)
3(1444 1518 1482)
2(1445 1481)
3(1484 1520 1446)
4(1483 1447 1485 1521)
4(1448 1522 1484 1486)
4(1449 1487 1485 1523)
3(1450 1486 1524)
3(1489 1525 1451)
4(1488 1490 1452 1526)
3(1527 1489 1453)
3(1528 1454 1492)
4(1493 1491 1455 1529)
3(1492 1530 1456)
3(1495 1531 1457)
4(1494 1532 1496 1458)
3(1459 1533 1495)
2(1498 1534)
4(1535 1461 1497 1499)
4(1462 1500 1536 1498)
3(1499 1537 1463)
2(1538 1464)
3(1503 1539 1465)
3(1466 1502 1540)
3(1505 1467 1541)
3(1504 1468 1542)
3(1469 1507 1543)
3(1506 1544 1470)
2(1471 1545)
3(1546 1472 1510)
3(1509 1473 1511)
4(1548 1474 1512 1510)
4(1511 1513 1475 1549)
2(1512 1476)
3(1515 1551 1477)
4(1514 1516 1552 1478)
2(1515 1479)
3(1480 1518 1554)
2(1481 1517)
1(1556)
2(1521 1483)
3(1520 1484 1522)
3(1523 1485 1521)
3(1522 1486 1524)
2(1487 1523)
2(1526 1488)
3(1525 1489 1527)
3(1528 1490 1526)
2(1527 1491)
3(1566 1492 1530)
3(1531 1493 1529)
3(1494 1530 1532)
3(1533 1495 1531)
2(1496 1532)
2(1535 1497)
3(1536 1498 1534)
3(1537 1535 1499)
3(1538 1536 1500)
2(1537 1501)
1(1502)
2(1541 1503)
3(1540 1504 1542)
3(1543 1541 1505)
3(1542 1544 1506)
2(1543 1507)
2(1546 1508)
3(1545 1509 1547)
2(1548 1546)
2(1511 1547)
2(1512 1586)
0()
2(1552 1514)
3(1551 1553 1515)
1(1552)
1(1517)
1(1592)
2(1593 1519)
2(1558 1594)
3(1559 1557 1595)
2(1596 1558)
1(1597)
0()
2(1563 1599)
3(1562 1600 1564)
3(1601 1563 1565)
3(1602 1566 1564)
2(1529 1565)
1(1568)
3(1567 1605 1569)
3(1606 1570 1568)
2(1569 1607)
0()
2(1573 1609)
3(1610 1574 1572)
3(1573 1575 1611)
2(1574 1612)
1(1577)
3(1578 1614 1576)
3(1615 1577 1579)
3(1580 1616 1578)
2(1579 1617)
1(1618)
2(1583 1619)
3(1582 1620 1584)
3(1621 1585 1583)
3(1584 1622 1586)
2(1549 1585)
1(1624)
2(1589 1625)
2(1588 1626)
1(1627)
2(1592 1628)
3(1591 1629 1555)
3(1556 1630 1594)
4(1631 1593 1557 1595)
4(1632 1596 1558 1594)
4(1559 1595 1633 1597)
3(1596 1634 1560)
1(1635)
3(1636 1600 1562)
4(1637 1601 1599 1563)
3(1638 1600 1564)
2(1639 1565)
0()
1(1641)
3(1606 1642 1568)
4(1605 1569 1643 1607)
4(1644 1608 1570 1606)
1(1607)
3(1646 1610 1572)
4(1573 1611 1647 1609)
3(1648 1610 1574)
2(1649 1575)
1(1650)
2(1577 1651)
3(1578 1652 1616)
3(1653 1579 1615)
3(1654 1618 1580)
3(1581 1617 1655)
2(1656 1582)
3(1657 1583 1621)
4(1584 1622 1658 1620)
3(1621 1585 1659)
1(1624)
3(1661 1587 1623)
3(1626 1662 1588)
4(1625 1589 1663 1627)
3(1664 1626 1590)
3(1665 1629 1591)
3(1592 1666 1628)
3(1593 1667 1631)
4(1632 1668 1594 1630)
4(1631 1669 1595 1633)
3(1634 1596 1632)
3(1671 1633 1597)
3(1672 1636 1598)
4(1637 1673 1599 1635)
3(1636 1674 1600)
3(1639 1675 1601)
4(1638 1676 1602 1640)
1(1639)
2(1678 1604)
3(1679 1605 1643)
3(1644 1642 1606)
4(1681 1607 1643 1645)
2(1682 1644)
3(1683 1609 1647)
3(1646 1610 1648)
4(1649 1685 1611 1647)
4(1648 1686 1612 1650)
2(1649 1613)
3(1688 1652 1614)
4(1689 1615 1651 1653)
4(1690 1616 1654 1652)
3(1653 1691 1617)
1(1618)
3(1657 1693 1619)
4(1656 1694 1620 1658)
3(1621 1659 1657)
3(1696 1658 1622)
2(1697 1661)
4(1662 1698 1624 1660)
3(1699 1625 1661)
2(1700 1626)
2(1701 1627)
3(1628 1702 1666)
2(1629 1665)
2(1630 1668)
3(1631 1667 1669)
3(1632 1670 1668)
3(1669 1707 1671)
3(1634 1670 1672)
3(1635 1709 1671)
3(1710 1636 1674)
3(1637 1675 1673)
4(1638 1674 1712 1676)
2(1639 1675)
1(1714)
3(1715 1641 1679)
3(1642 1680 1678)
2(1679 1717)
2(1644 1682)
3(1681 1719 1645)
3(1646 1684 1720)
3(1685 1721 1683)
3(1648 1684 1686)
4(1649 1687 1723 1685)
2(1686 1724)
3(1725 1651 1689)
4(1690 1652 1688 1726)
4(1689 1653 1691 1727)
3(1728 1654 1690)
2(1693 1729)
4(1730 1656 1692 1694)
4(1731 1657 1695 1693)
3(1694 1732 1696)
3(1733 1659 1695)
3(1698 1660 1734)
2(1661 1697)
3(1700 1736 1662)
3(1699 1701 1663)
2(1664 1700)
3(1665 1703 1739)
1(1702)
1(1705)
2(1706 1704)
2(1705 1707)
3(1708 1670 1706)
1(1707)
2(1672 1746)
2(1711 1673)
2(1710 1712)
3(1711 1675 1713)
1(1712)
3(1715 1677 1751)
4(1714 1716 1678 1752)
2(1715 1717)
3(1718 1680 1716)
1(1717)
3(1756 1682 1720)
3(1721 1719 1683)
3(1720 1684 1722)
2(1723 1721)
3(1722 1724 1686)
2(1723 1687)
2(1726 1688)
3(1725 1727 1689)
3(1728 1726 1690)
2(1727 1691)
2(1730 1692)
3(1731 1693 1729)
3(1730 1694 1732)
3(1733 1695 1731)
2(1696 1732)
2(1771 1697)
0()
2(1699 1737)
2(1736 1738)
1(1737)
3(1776 1740 1702)
2(1739 1777)
2(1778 1742)
3(1743 1779 1741)
3(1780 1742 1744)
2(1743 1745)
2(1782 1744)
3(1747 1783 1709)
3(1748 1784 1746)
2(1747 1785)
1(1750)
1(1749)
2(1752 1714)
4(1789 1751 1753 1715)
2(1752 1790)
2(1791 1755)
2(1754 1792)
3(1719 1757 1793)
3(1758 1794 1756)
3(1795 1757 1759)
3(1796 1760 1758)
3(1759 1797 1761)
1(1760)
2(1763 1799)
2(1762 1800)
2(1765 1801)
2(1764 1802)
2(1767 1803)
3(1768 1804 1766)
3(1805 1767 1769)
3(1806 1770 1768)
2(1769 1807)
1(1734)
1(1809)
2(1810 1774)
2(1773 1775)
2(1812 1774)
3(1777 1739 1813)
3(1776 1814 1740)
3(1815 1779 1741)
4(1780 1816 1742 1778)
4(1779 1817 1781 1743)
3(1780 1818 1782)
3(1819 1745 1781)
2(1784 1746)
4(1821 1785 1747 1783)
4(1822 1748 1784 1786)
2(1823 1785)
1(1824)
2(1789 1825)
4(1790 1752 1788 1826)
4(1827 1791 1789 1753)
4(1754 1790 1828 1792)
3(1829 1755 1791)
2(1794 1756)
4(1795 1831 1757 1793)
4(1758 1794 1832 1796)
4(1833 1759 1797 1795)
4(1834 1796 1798 1760)
2(1797 1835)
2(1836 1762)
2(1837 1763)
3(1838 1764 1802)
4(1839 1765 1803 1801)
4(1840 1802 1804 1766)
3(1767 1841 1803)
3(1842 1768 1806)
4(1769 1807 1843 1805)
3(1806 1770 1844)
2(1809 1845)
3(1808 1846 1772)
3(1847 1773 1811)
3(1812 1848 1810)
3(1811 1849 1775)
3(1814 1850 1776)
3(1777 1813 1851)
1(1778)
3(1817 1853 1779)
3(1816 1854 1780)
3(1819 1781 1855)
3(1782 1818 1856)
0()
3(1822 1858 1784)
3(1821 1859 1785)
3(1860 1786 1824)
4(1861 1787 1825 1823)
2(1824 1788)
3(1863 1827 1789)
4(1864 1790 1826 1828)
4(1865 1829 1791 1827)
4(1792 1866 1828 1830)
1(1829)
3(1868 1794 1832)
3(1795 1831 1869)
3(1834 1870 1796)
4(1833 1871 1797 1835)
3(1872 1834 1798)
3(1799 1873 1837)
4(1874 1836 1800 1838)
4(1875 1801 1839 1837)
4(1838 1876 1802 1840)
2(1839 1803)
3(1842 1878 1804)
4(1841 1879 1805 1843)
3(1806 1842 1844)
3(1881 1843 1807)
2(1846 1808)
4(1847 1883 1809 1845)
3(1884 1810 1846)
3(1811 1885 1849)
3(1886 1812 1848)
3(1887 1851 1813)
3(1888 1814 1850)
2(1853 1889)
4(1816 1852 1854 1890)
4(1891 1817 1855 1853)
2(1854 1818)
2(1819 1893)
2(1858 1894)
3(1821 1857 1895)
3(1896 1822 1860)
4(1861 1859 1823 1897)
4(1860 1862 1824 1898)
2(1899 1861)
3(1900 1826 1864)
4(1827 1863 1865 1901)
4(1828 1864 1866 1902)
3(1903 1829 1865)
2(1868 1904)
4(1831 1867 1869 1905)
4(1906 1870 1832 1868)
3(1907 1833 1869)
2(1908 1834)
3(1835 1909 1873)
4(1910 1836 1874 1872)
4(1875 1911 1837 1873)
4(1874 1912 1838 1876)
3(1913 1839 1875)
2(1878 1914)
3(1841 1877 1879)
4(1916 1842 1880 1878)
3(1917 1879 1881)
4(1918 1844 1880 1882)
2(1881 1919)
2(1920 1846)
3(1885 1921 1847)
3(1884 1848 1886)
3(1849 1885 1923)
2(1850 1888)
2(1851 1887)
2(1890 1852)
3(1891 1889 1853)
3(1854 1890 1892)
2(1893 1891)
2(1892 1856)
2(1857 1895)
2(1894 1858)
2(1859 1897)
4(1898 1896 1860 1934)
3(1897 1899 1861)
3(1862 1898 1936)
2(1863 1901)
2(1900 1864)
2(1903 1865)
2(1866 1902)
2(1867 1905)
3(1906 1904 1868)
3(1869 1905 1907)
3(1870 1908 1906)
2(1871 1907)
2(1946 1872)
1(1873)
2(1874 1912)
3(1875 1911 1913)
2(1876 1912)
2(1915 1877)
2(1916 1914)
3(1879 1915 1917)
3(1880 1918 1916)
3(1881 1917 1919)
2(1918 1882)
1(1883)
2(1884 1922)
2(1921 1923)
2(1922 1886)
2(1961 1925)
2(1924 1962)
2(1963 1927)
3(1928 1964 1926)
3(1965 1927 1929)
2(1930 1928)
2(1929 1931)
1(1930)
2(1969 1933)
3(1934 1970 1932)
3(1933 1935 1897)
2(1936 1934)
2(1935 1899)
2(1974 1938)
3(1975 1937 1939)
1(1938)
1(1977)
0()
2(1979 1943)
2(1944 1942)
3(1981 1943 1945)
3(1944 1982 1946)
3(1983 1909 1945)
2(1948 1984)
2(1947 1985)
2(1950 1986)
2(1949 1987)