/*--------------------------------*- C++ -*----------------------------------*\
| =========                 |                                                 |
| \\      /  F ield         | OpenFOAM: The Open Source CFD Toolbox           |
|  \\    /   O peration     | Version:  2.2.x                                 |
|   \\  /    A nd           | Web:      www.OpenFOAM.org                      |
|    \\/     M anipulation  |                                                 |
\*---------------------------------------------------------------------------*/
FoamFile
{
    version     2.0;
    format      ascii;
    class       vectorField;
    location    "0.01";
    object      f;
}
// * * * * * * * * * * * * * * * * * * * * * * * * * * * * * * * * * * * * * //


2405
(
(1.28974e-24 1.55093e-08 1.14659e-08)
(1.56652e-24 -1.22222e-08 -5.63554e-08)
(-5.94214e-25 8.17706e-08 -4.4003e-07)
(-2.61865e-23 -1.33342e-08 -1.2933e-07)
(5.73272e-25 -1.68379e-08 4.09896e-08)
(3.79752e-24 4.70336e-08 -1.37017e-07)
(3.05819e-24 2.01706e-08 -1.10108e-07)
(4.08029e-24 -1.3081e-07 -8.5136e-07)
(-3.8516e-26 2.47796e-08 -8.73964e-08)
(4.76771e-26 1.22719e-08 8.52081e-09)
(3.45543e-24 -9.65391e-09 -1.76348e-07)
(6.50705e-26 1.67773e-08 6.7646e-09)
(1.81274e-23 -4.37272e-08 -8.90409e-07)
(-3.4894e-24 8.20677e-09 -8.21598e-08)
(-5.22199e-25 1.29229e-09 -8.93778e-08)
(1.07196e-26 -3.86753e-09 3.96306e-09)
(-3.24513e-25 3.12153e-08 -1.73774e-07)
(1.69796e-23 -6.65763e-08 1.18636e-06)
(-8.9241e-24 4.5609e-08 -1.65905e-07)
(-3.21606e-28 -4.53964e-08 -1.66771e-07)
(4.93692e-26 -1.43876e-08 1.49149e-08)
(1.09295e-23 -3.41292e-08 -9.82627e-08)
(2.43013e-23 1.34501e-07 -8.51261e-07)
(3.22418e-24 -5.25904e-08 -9.96204e-08)
(-1.79715e-24 3.26987e-08 -7.77185e-08)
(3.72442e-25 -2.67012e-08 6.30325e-09)
(4.72141e-26 2.94212e-08 -2.74175e-08)
(3.93762e-24 1.40484e-08 -1.12722e-06)
(-1.7702e-24 3.24664e-08 -1.26856e-07)
(1.19129e-25 5.36313e-09 1.26533e-08)
(-1.1962e-24 3.73973e-08 -1.60874e-07)
(-9.70379e-24 -1.02732e-08 -1.68894e-07)
(-4.90179e-25 -1.55794e-08 -9.16347e-10)
(1.28945e-25 3.40144e-08 -1.55519e-07)
(5.73458e-28 -2.11838e-09 3.11426e-10)
(-2.34061e-24 1.03819e-08 -8.15258e-08)
(1.1943e-37 6.47314e-11 5.83358e-11)
(-9.20192e-26 7.91632e-08 5.89744e-08)
(-1.03945e-24 3.86354e-08 1.22314e-07)
(-1.44443e-23 -8.23085e-08 1.10951e-06)
(1.11936e-23 -4.70612e-08 1.61416e-07)
(1.44052e-30 1.09602e-08 3.19594e-08)
(-3.93427e-24 1.20861e-08 1.48425e-07)
(-3.12829e-24 -7.73074e-09 1.1113e-07)
(-3.97615e-24 6.22844e-08 8.30974e-07)
(-1.1741e-25 5.94559e-09 9.64422e-08)
(-1.03255e-29 -2.17224e-08 2.93451e-08)
(-4.19579e-24 -2.60906e-08 1.16636e-07)
(-2.18598e-29 -5.77069e-08 -5.57538e-09)
(2.4469e-23 2.03688e-07 4.35437e-07)
(2.30562e-24 -2.90016e-08 1.76506e-07)
(-6.24799e-26 -3.65581e-08 5.55562e-08)
(-5.35785e-31 -5.68639e-09 5.34864e-08)
(3.41039e-25 5.16571e-08 1.50978e-07)
(-6.97016e-24 -3.32286e-08 2.9594e-07)
(8.73632e-24 -3.68697e-09 1.52808e-07)
(-1.41e-30 -2.55517e-08 1.66389e-07)
(-3.8081e-30 2.77363e-09 5.14586e-08)
(-1.08384e-23 5.4938e-08 8.88563e-08)
(-2.43625e-23 -5.76118e-08 8.31358e-07)
(-1.37161e-24 5.83239e-09 9.38616e-08)
(-3.35018e-25 -1.51736e-08 7.14817e-08)
(-7.743e-31 -2.23783e-08 -7.8309e-08)
(1.02902e-26 5.63373e-08 -2.389e-08)
(-3.73205e-24 -8.9356e-08 1.20492e-06)
(1.55047e-24 -2.70255e-08 8.57483e-08)
(1.477e-31 1.31018e-09 2.33213e-08)
(9.69381e-25 2.22638e-08 1.75814e-07)
(9.74221e-24 -1.3206e-09 1.47488e-07)
(-1.17971e-26 3.51297e-08 -9.55025e-08)
(-2.13783e-31 -4.15923e-09 1.41799e-07)
(1.33218e-31 -2.55443e-08 9.53919e-09)
(2.34003e-24 1.55234e-08 7.24261e-08)
(-5.47162e-32 2.87695e-09 -1.54754e-09)
(-1.78657e-23 4.89727e-07 -1.52907e-07)
(-2.44006e-24 1.12974e-07 -4.98837e-08)
(3.91296e-36 -6.17946e-07 -9.66085e-08)
(1.92345e-30 4.31841e-07 -1.50923e-07)
(1.18112e-34 1.87809e-07 -2.84558e-07)
(1.2154e-31 -1.64298e-07 -1.16032e-07)
(-6.21639e-36 2.56845e-07 -2.06761e-07)
(-7.36868e-32 -9.93762e-08 -2.26578e-07)
(-2.82233e-29 5.19381e-08 -2.32065e-07)
(-5.27305e-30 5.11798e-08 -1.90491e-07)
(2.56915e-29 -2.97325e-07 -8.65955e-08)
(-2.16831e-29 3.55986e-07 6.11091e-08)
(-1.22851e-23 8.25296e-08 6.47708e-07)
(-4.79087e-29 -4.06217e-07 -1.62237e-07)
(1.58566e-33 1.07646e-07 -2.3639e-07)
(-1.10548e-33 4.04779e-07 -8.797e-08)
(-6.74327e-31 8.18727e-09 -1.97104e-07)
(0 0 0)
(2.14404e-30 -2.00026e-07 -1.98772e-07)
(-4.48934e-35 1.20183e-07 -2.17718e-07)
(1.91265e-34 -3.64735e-07 -1.54145e-07)
(-1.73728e-34 1.86871e-07 -1.13771e-07)
(2.02018e-35 1.4567e-07 -5.38712e-07)
(-2.43022e-34 -1.04494e-07 -2.66471e-07)
(-2.11347e-29 8.7672e-08 -2.39827e-07)
(-3.8974e-34 -3.35678e-07 -7.66399e-08)
(-1.69798e-28 -4.35951e-08 -2.17672e-07)
(-5.00849e-34 2.93269e-07 -3.58126e-08)
(-1.75643e-30 -2.74044e-07 -1.53291e-07)
(6.95808e-31 3.22458e-07 -1.95905e-07)
(5.55633e-30 -1.28864e-07 -6.27318e-08)
(-6.9488e-30 1.4037e-07 -1.98531e-07)
(1.11611e-27 -2.774e-08 1.16336e-07)
(6.47539e-41 -2.03378e-08 -2.67285e-07)
(6.00337e-34 -2.92399e-07 -2.71368e-07)
(-5.61669e-29 -4.65109e-08 -3.04417e-08)
(-9.9712e-35 2.74572e-07 -6.36154e-08)
(-1.46074e-24 -6.3825e-09 -2.14352e-08)
(-3.53492e-29 1.00056e-08 1.33825e-08)
(-1.3639e-31 -2.49911e-08 -3.23101e-07)
(-2.75009e-30 -9.07085e-08 2.24451e-07)
(-5.98751e-36 -3.99262e-08 3.68373e-08)
(4.10634e-31 7.26271e-08 -2.14988e-07)
(3.25894e-40 4.05773e-08 3.73252e-08)
(-1.14555e-34 -1.59274e-07 6.35187e-09)
(1.63349e-29 -6.63463e-08 2.33232e-08)
(4.53676e-35 -4.69067e-08 4.20702e-08)
(-2.22541e-35 1.06189e-08 -1.73335e-07)
(1.37518e-36 -1.15114e-08 -4.57944e-08)
(-2.43397e-38 8.02148e-08 -9.75447e-07)
(-1.06574e-28 -1.03239e-07 -1.44798e-08)
(-6.08743e-35 -8.08071e-08 9.96948e-08)
(3.19983e-36 4.58947e-08 -6.63114e-08)
(-6.00636e-30 -3.07578e-09 -4.8582e-08)
(-1.77427e-35 -4.29921e-08 -1.17383e-06)
(8.69072e-30 -2.56066e-08 -1.22194e-08)
(-9.20624e-39 -1.75809e-07 -2.55718e-07)
(1.31302e-38 3.69715e-08 -1.11878e-07)
(-3.5348e-39 6.45831e-08 -1.44134e-07)
(-2.16544e-37 2.35915e-07 2.13608e-07)
(1.01345e-39 -8.31004e-09 2.7612e-08)
(4.62863e-29 -2.59891e-08 8.16622e-08)
(2.30988e-35 -1.03308e-07 5.91273e-08)
(1.25417e-29 1.52172e-07 2.28342e-07)
(-3.8667e-37 5.92065e-08 -1.56317e-07)
(1.89401e-29 -4.30255e-08 1.2344e-07)
(-4.22297e-35 -5.19658e-08 4.26037e-08)
(5.4306e-30 2.39084e-08 -2.31147e-07)
(1.11864e-29 7.67783e-09 -4.4749e-08)
(-2.96367e-39 9.22021e-09 -3.7199e-07)
(2.74803e-39 2.5579e-08 6.71558e-09)
(-4.55394e-35 -2.70614e-08 5.10807e-08)
(1.18436e-28 1.06329e-07 9.74855e-08)
(8.78973e-36 1.45243e-08 -4.48871e-09)
(5.61691e-24 -2.66022e-08 -3.59656e-07)
(1.28723e-29 -5.33091e-08 6.02595e-09)
(-1.65555e-29 1.56855e-07 2.35091e-07)
(8.64842e-31 -3.6939e-08 1.25759e-07)
(6.49223e-36 -5.9692e-08 1.39345e-07)
(4.14334e-30 -7.72215e-09 1.45011e-07)
(3.77139e-36 2.91083e-08 2.33254e-07)
(-7.168e-37 3.84739e-08 2.25931e-07)
(-1.66288e-29 -2.81479e-09 8.99713e-08)
(-7.38052e-37 4.46012e-08 1.30045e-07)
(6.92322e-36 6.74036e-09 2.56414e-08)
(-7.49247e-37 -1.4975e-08 4.74422e-08)
(2.37654e-38 1.08688e-08 9.77758e-07)
(2.96546e-28 -2.3833e-08 2.02887e-07)
(-2.84042e-34 2.01655e-08 -9.61831e-08)
(2.07001e-35 -5.19833e-09 8.17262e-08)
(2.01302e-29 4.95786e-08 1.49148e-07)
(5.59119e-35 -3.56225e-08 1.21876e-06)
(1.18699e-29 1.73334e-08 1.32733e-07)
(9.31811e-36 8.16682e-08 2.34999e-07)
(-2.57485e-41 -3.78969e-08 2.81154e-07)
(1.22718e-42 1.07128e-08 4.57239e-08)
(1.36356e-37 -2.94565e-08 4.46445e-07)
(-7.82315e-37 -3.56267e-09 2.1279e-07)
(-1.13593e-28 1.76372e-08 -7.70153e-08)
(-1.3315e-37 -3.1104e-08 3.06955e-08)
(-3.82415e-31 -2.34139e-08 1.04416e-07)
(9.0702e-39 7.50263e-08 1.44864e-07)
(-7.54059e-31 1.7552e-09 -7.57489e-08)
(7.61638e-35 -1.64721e-08 9.58527e-08)
(1.16978e-28 -3.9736e-08 1.04083e-07)
(-7.67045e-30 3.21286e-08 2.08994e-07)
(-6.27509e-36 -4.80351e-09 -2.39372e-07)
(1.89598e-40 -1.73803e-08 2.15605e-07)
(-5.80556e-40 4.90677e-09 8.71698e-08)
(-3.50433e-28 -1.10759e-08 -1.30015e-07)
(-9.94097e-37 3.65374e-09 5.09641e-10)
(-8.62006e-24 -2.09351e-08 2.47721e-08)
(-1.91124e-30 4.32459e-09 -4.13255e-08)
(1.79277e-29 -5.17547e-08 5.61998e-08)
(-3.83163e-32 -8.20242e-10 2.73413e-09)
(-2.52802e-36 -1.29837e-08 4.521e-08)
(-4.72429e-30 -4.03833e-08 4.68689e-08)
(-2.7979e-36 1.85724e-08 -3.36811e-08)
(-5.39761e-38 7.49166e-08 -1.21248e-06)
(5.93427e-29 -4.12329e-08 7.51822e-08)
(-9.25451e-37 -2.47902e-08 5.15314e-08)
(1.61945e-36 -5.83329e-08 1.11032e-07)
(-7.65742e-37 4.95836e-08 -2.92183e-09)
(1.73656e-38 3.45525e-08 -9.10371e-07)
(-1.42064e-28 -1.16391e-07 8.00605e-08)
(1.5954e-35 5.95312e-08 1.14187e-07)
(3.50445e-36 1.55986e-08 4.84109e-08)
(-1.3618e-29 2.1534e-08 6.82789e-08)
(1.87885e-36 1.26074e-08 -8.0379e-07)
(-2.38348e-29 -9.03775e-08 3.93303e-08)
(3.92239e-36 6.15294e-08 1.54108e-07)
(-1.47524e-37 -1.41087e-08 6.82823e-08)
(6.02116e-39 -4.9558e-08 7.74576e-08)
(-1.42552e-40 9.72186e-08 -2.91652e-08)
(1.53433e-35 -5.4031e-08 2.30272e-08)
(6.52049e-29 1.47946e-09 1.65983e-07)
(3.74689e-35 -2.59463e-08 4.40148e-08)
(4.64625e-33 6.00877e-08 -5.9429e-09)
(2.74466e-34 -7.12423e-08 -1.20999e-06)
(-3.11345e-29 2.4997e-08 1.35652e-07)
(-1.03476e-34 -2.76672e-09 4.22693e-08)
(-1.44377e-28 -7.037e-09 1.04943e-07)
(3.43308e-30 3.21868e-08 8.00161e-08)
(1.62594e-40 3.01225e-08 3.79951e-07)
(-4.1193e-41 1.15021e-08 4.42412e-08)
(-3.31375e-36 2.76268e-09 2.61388e-08)
(1.59563e-28 -6.0146e-09 1.63291e-07)
(5.94792e-36 6.41186e-09 -1.06374e-09)
(4.22233e-24 5.10083e-08 3.42384e-07)
(1.64984e-32 -5.14318e-09 7.33602e-08)
(-3.21803e-30 6.79887e-08 -8.1547e-07)
(0 0 0)
(1.62076e-38 -3.82442e-08 7.01088e-09)
(4.87796e-32 -5.48979e-09 1.66412e-08)
(2.26719e-38 -1.03987e-08 3.03422e-08)
(2.44078e-37 -5.29841e-09 1.24731e-06)
(-2.90424e-29 9.07206e-09 2.77489e-08)
(2.05759e-38 -5.25189e-08 1.04632e-08)
(-3.86241e-38 -5.30448e-08 -1.66057e-08)
(1.67321e-38 8.52274e-08 1.66759e-09)
(-5.39688e-40 -2.50019e-08 -2.88059e-07)
(-1.88145e-38 -3.53178e-08 3.08972e-09)
(1.89208e-38 4.14175e-08 5.87802e-08)
(-4.78527e-37 -4.41018e-08 7.98253e-09)
(1.68523e-31 4.38472e-08 -4.98886e-09)
(-3.82508e-37 -1.15868e-07 8.66023e-07)
(1.13009e-30 1.16214e-07 -3.70997e-08)
(-1.02536e-41 -4.86721e-08 1.79025e-08)
(1.37902e-41 -7.85661e-09 -2.19945e-08)
(-4.30354e-42 -6.25336e-09 2.3835e-08)
(4.59065e-43 7.65793e-08 -1.68768e-07)
(2.89597e-37 -1.83425e-08 4.40651e-08)
(2.32368e-29 -1.13241e-08 2.6315e-08)
(1.20113e-36 -7.25828e-09 6.67264e-09)
(-2.90864e-35 4.04422e-08 2.82506e-09)
(-1.49527e-35 -5.21891e-08 1.15027e-06)
(1.4705e-29 -4.83348e-08 7.54719e-08)
(4.33548e-36 9.36804e-08 9.47691e-09)
(1.64125e-29 9.52845e-09 -5.10513e-10)
(1.78177e-35 2.51534e-08 7.54592e-09)
(-1.13407e-40 -1.02801e-07 -2.1404e-08)
(3.36275e-47 4.77119e-08 8.20817e-09)
(1.49465e-35 -1.57514e-08 5.15948e-09)
(1.28601e-28 2.38191e-08 5.77635e-08)
(-3.82627e-42 -2.18702e-09 3.02742e-09)
(-6.50694e-24 7.63898e-08 -5.08352e-08)
(3.285e-24 3.28585e-08 3.16942e-08)
(-1.04974e-26 7.65053e-09 6.11232e-07)
(-1.24027e-49 -2.55584e-07 -2.60771e-08)
(2.89127e-43 4.7412e-08 -2.96839e-08)
(-4.75466e-47 8.06623e-08 -3.32766e-08)
(1.64458e-45 -3.65739e-08 -5.91656e-08)
(-2.97935e-38 1.80737e-07 7.76728e-08)
(1.17702e-58 1.314e-08 -9.66436e-08)
(-1.40553e-56 1.61159e-09 -7.3941e-08)
(3.25874e-44 -4.66444e-07 3.54849e-08)
(-9.51061e-49 1.7413e-07 6.34552e-08)
(-2.59193e-43 3.23977e-07 1.11441e-06)
(-1.84035e-67 -4.7772e-07 -2.24831e-08)
(1.38369e-67 2.39526e-07 -3.31976e-08)
(4.56661e-68 2.49682e-07 6.57037e-09)
(3.26262e-63 -6.71523e-10 -1.88525e-07)
(1.15554e-44 -6.56265e-09 -2.3226e-08)
(-4.66776e-60 -5.10011e-12 -1.12053e-07)
(-4.94224e-58 7.87573e-08 -2.39022e-07)
(1.22e-55 -3.18296e-07 -1.10503e-07)
(-1.53941e-54 -5.14689e-08 5.41047e-08)
(-9.43132e-49 1.28841e-07 -2.84191e-07)
(-6.10867e-55 -1.98192e-07 -2.56585e-08)
(2.68732e-56 1.29812e-07 -1.9605e-07)
(-8.18473e-59 2.57598e-07 -1.85326e-10)
(-3.76748e-67 2.64989e-08 -1.44082e-07)
(-4.09167e-48 -2.45017e-07 -4.77863e-07)
(-2.47909e-53 7.37438e-08 -1.12265e-07)
(2.35883e-51 1.8056e-07 -1.27509e-08)
(-2.40631e-49 -9.40076e-08 -1.37733e-08)
(-7.03148e-49 1.84991e-07 5.10134e-08)
(3.36816e-41 3.63168e-08 2.57301e-07)
(6.33014e-58 -4.54844e-09 -2.49384e-08)
(-5.06319e-62 -3.03001e-07 1.38661e-08)
(8.09764e-63 2.39479e-07 8.026e-09)
(-1.58054e-63 5.98861e-08 -3.40116e-08)
(8.30496e-25 4.97626e-08 -3.60913e-08)
(-5.20806e-26 -3.85347e-09 -2.04416e-08)
(-5.13753e-31 2.06456e-08 2.38745e-07)
(1.97515e-39 -5.50055e-09 -1.87842e-07)
(-4.83068e-41 -1.24765e-07 -2.76246e-07)
(-7.15818e-47 3.84316e-09 -1.15272e-07)
(-4.54269e-48 1.23662e-07 -9.26466e-08)
(9.38323e-52 1.29107e-08 -1.6998e-06)
(-1.31526e-58 -3.89238e-08 6.63226e-09)
(1.96719e-56 -1.07026e-07 -2.84966e-07)
(-9.21622e-63 -6.84242e-08 -9.35477e-08)
(8.53043e-55 4.56918e-08 -1.21653e-07)
(-4.40929e-62 5.71796e-08 -1.71536e-08)
(-5.44598e-68 -7.05158e-08 -3.34217e-07)
(1.15703e-67 -6.13041e-08 -1.58811e-07)
(-7.01305e-68 1.01208e-07 -2.23595e-07)
(-1.84939e-62 9.08644e-08 -2.44955e-07)
(-1.22024e-44 -5.56377e-08 -1.27512e-06)
(6.50982e-52 6.59484e-08 -1.55261e-07)
(-1.37304e-54 -7.32488e-08 -2.24767e-07)
(-1.8802e-59 -8.8314e-09 -1.535e-07)
(1.0814e-57 2.99223e-08 -6.47738e-08)
(3.24854e-49 4.43388e-08 -3.78801e-07)
(3.38373e-56 -9.81135e-08 -7.92585e-08)
(-9.97927e-58 -5.13683e-08 -2.38535e-07)
(1.64783e-59 1.2845e-07 -1.10211e-07)
(1.91071e-65 -1.86176e-08 1.40963e-08)
(1.51998e-47 -2.05363e-07 9.02942e-09)
(-5.74117e-54 -4.40596e-08 -2.11111e-07)
(1.17486e-54 -3.5198e-08 -2.23201e-07)
(-1.55154e-54 6.08226e-08 -4.49149e-08)
(1.98241e-56 8.56346e-09 -2.34616e-07)
(1.05317e-51 -2.791e-09 8.37288e-10)
(-1.05317e-51 1.17907e-08 -1.32259e-07)
(1.42937e-54 -5.24589e-08 -1.54209e-07)
(-1.49096e-54 3.13251e-08 -2.03e-07)
(6.15914e-56 7.32854e-09 -9.90224e-09)
(5.47961e-25 -4.6781e-09 -9.76548e-08)
(-1.0849e-26 -3.4317e-08 -2.36258e-08)
(3.29586e-28 5.91913e-08 1.77573e-08)
(-2.91691e-38 2.47843e-09 4.9869e-08)
(9.30342e-40 -2.6998e-08 -5.12728e-08)
(7.38598e-45 -9.28662e-08 9.26681e-08)
(3.88158e-46 -2.61351e-08 3.96287e-08)
(-3.54974e-50 1.11103e-07 1.73124e-06)
(1.43949e-59 1.34797e-08 5.0071e-08)
(-5.99513e-57 4.59887e-08 -1.0847e-07)
(5.09411e-63 -5.08331e-08 -8.6326e-09)
(-7.64675e-56 2.40682e-08 -7.39386e-08)
(2.0145e-62 9.158e-08 -2.57892e-08)
(1.68642e-69 -1.58538e-07 -7.52009e-08)
(-8.26211e-69 -1.14163e-07 -1.29308e-07)
(1.77375e-68 1.38139e-07 7.51849e-08)
(7.32289e-62 3.46109e-08 1.86432e-07)
(6.47073e-46 -7.99156e-08 1.30519e-06)
(-2.77301e-53 6.52042e-08 -6.24919e-08)
(8.61216e-56 2.88516e-08 3.35428e-07)
(-2.60052e-59 -2.20354e-08 1.63249e-07)
(-1.49182e-59 6.93421e-10 1.23559e-08)
(-3.55441e-50 -3.19892e-08 -4.09624e-07)
(-2.0569e-58 3.82562e-09 -2.19763e-08)
(5.36766e-60 -3.19228e-08 1.81634e-08)
(-1.23144e-66 -1.04324e-08 -1.81847e-07)
(-2.68823e-65 2.87703e-08 1.10098e-07)
(-9.71249e-48 2.04955e-08 4.83215e-07)
(1.03843e-54 -2.46068e-08 -1.9213e-07)
(-1.25206e-54 7.94598e-08 -3.39332e-07)
(2.28151e-55 5.82342e-08 4.17981e-08)
(2.30387e-58 -1.53057e-08 -4.08444e-08)
(-8.96736e-62 -8.42199e-08 1.49978e-09)
(7.48683e-57 2.92426e-08 1.28955e-07)
(-2.8685e-60 5.83573e-08 -1.66176e-07)
(-3.02322e-61 1.23284e-08 -3.3945e-07)
(1.25987e-62 5.55501e-09 1.62426e-08)
(-7.20472e-25 1.21656e-07 -1.87558e-08)
(-1.46481e-25 4.70409e-08 -2.81401e-08)
(-1.61591e-33 -3.52652e-08 -1.05791e-08)
(1.70439e-33 -2.37346e-08 1.14337e-07)
(-9.05059e-35 -3.54443e-08 3.12291e-07)
(2.33561e-36 9.84078e-08 4.89354e-08)
(-1.87952e-38 1.43737e-08 3.47426e-08)
(-9.9756e-63 -3.51825e-08 -2.01632e-06)
(-5.92037e-61 1.93032e-08 -1.36119e-08)
(3.86196e-58 -6.15082e-08 4.4505e-07)
(7.36389e-66 9.80851e-09 -2.09544e-09)
(5.57151e-57 -3.31604e-08 2.55296e-07)
(-3.49256e-64 1.73654e-07 -1.64901e-06)
(6.62751e-70 -4.45339e-08 2.92897e-07)
(-1.71625e-69 -6.58519e-08 2.35533e-07)
(-1.96675e-69 1.0218e-07 2.30408e-07)
(-1.04882e-61 5.15062e-08 1.31973e-07)
(-1.71868e-50 -1.28407e-07 -1.96055e-06)
(-1.72659e-57 3.55343e-08 1.93831e-07)
(-2.64039e-62 -1.48308e-08 1.22393e-07)
(9.46767e-61 1.02001e-08 3.63768e-08)
(-4.71839e-59 -3.6217e-09 2.81086e-08)
(3.55624e-51 4.28154e-09 7.50986e-07)
(-1.26972e-58 -3.19899e-08 2.12552e-07)
(2.24577e-60 1.69056e-08 2.68632e-07)
(-2.0261e-62 5.95546e-08 2.29639e-07)
(2.34637e-65 -5.8321e-09 1.5947e-09)
(-6.42058e-48 -1.02919e-07 -1.6258e-06)
(-6.81449e-55 -1.91278e-08 1.48193e-07)
(6.14305e-57 1.51004e-08 3.74976e-07)
(-1.57838e-59 -2.32268e-08 -8.17821e-09)
(7.44905e-62 6.89099e-08 9.02199e-08)
(9.43696e-64 -1.10288e-07 -1.26034e-06)
(-4.43547e-57 2.86456e-08 1.70879e-08)
(1.1752e-59 4.5494e-09 2.27345e-07)
(3.55085e-62 -1.39239e-08 4.34345e-07)
(-1.35347e-64 1.55827e-09 -1.3367e-08)
(-1.80845e-25 1.32779e-07 3.90878e-08)
(1.06556e-28 1.7095e-09 3.38303e-08)
(2.59266e-31 1.75423e-08 -4.80802e-07)
(-2.17991e-31 4.57578e-08 6.40077e-08)
(1.40035e-32 1.87612e-08 6.15099e-08)
(3.51178e-63 -7.61894e-10 -2.28568e-10)
(2.75352e-55 2.40427e-09 -9.70629e-09)
(9.97563e-63 -2.3175e-08 1.99882e-06)
(2.24819e-62 -4.78216e-08 6.06027e-08)
(-7.6631e-60 -8.5131e-08 5.08515e-08)
(5.09403e-65 1.50467e-07 2.90268e-08)
(-3.47499e-59 2.51732e-08 5.40521e-09)
(6.73354e-69 -1.17168e-07 1.69586e-06)
(-2.65726e-71 -4.03264e-08 1.28883e-07)
(1.93479e-70 -4.79063e-08 3.13158e-08)
(-1.03829e-69 8.48224e-08 -5.67203e-09)
(4.68839e-62 -1.10086e-08 9.67664e-08)
(1.71868e-50 3.51454e-08 1.94897e-06)
(-1.16755e-57 2.63382e-08 1.38016e-07)
(2.54836e-59 -4.70334e-08 7.90641e-09)
(-2.95048e-60 4.7572e-08 -1.58924e-10)
(7.03378e-60 2.26597e-08 6.21465e-08)
(-3.60391e-52 1.98871e-08 3.71124e-07)
(2.2204e-63 1.09407e-08 2.78671e-08)
(1.12973e-67 -4.83184e-08 8.42455e-08)
(6.57785e-70 -8.0931e-09 3.32994e-08)
(-1.3145e-66 2.66697e-08 3.20906e-08)
(5.02497e-48 2.00398e-08 1.70573e-06)
(-3.28462e-59 -3.19954e-08 2.25791e-07)
(-1.32833e-60 -1.5796e-08 2.15649e-07)
(-3.17797e-63 4.12594e-08 2.31776e-08)
(-1.75232e-64 2.1053e-08 1.76185e-07)
(-1.9447e-68 1.38437e-07 -1.5626e-07)
(4.03212e-58 2.09193e-08 -3.85929e-08)
(-5.81858e-60 -2.5247e-09 4.93715e-08)
(-1.59005e-63 -6.46869e-09 1.39051e-07)
(1.69417e-66 5.73847e-09 -7.40006e-07)
(9.0481e-27 3.23346e-08 1.43883e-07)
(-3.83204e-27 -7.38863e-08 -1.04834e-07)
(3.83201e-27 4.104e-08 1.63926e-07)
(-1.23482e-38 -3.9531e-08 -5.29093e-08)
(-3.11118e-39 -1.71108e-07 -3.41514e-07)
(-6.85841e-42 2.05978e-07 -4.47844e-08)
(-2.75352e-55 -1.64237e-09 9.93486e-09)
(3.87615e-54 6.01814e-08 -1.017e-06)
(-2.15288e-64 -6.36986e-08 9.75266e-09)
(4.41836e-72 -4.25043e-07 -3.38213e-07)
(-2.96473e-74 5.33433e-07 -1.51154e-07)
(4.45107e-77 6.09171e-08 -2.23551e-07)
(-1.42727e-72 -3.38481e-08 -1.07453e-07)
(-3.02892e-86 -7.33331e-07 -1.84537e-07)
(6.99366e-86 -8.5838e-08 -3.7642e-07)
(-3.24954e-81 8.21723e-07 -2.18872e-07)
(1.27097e-93 -5.01958e-09 -3.62675e-08)
(0 0 0)
(1.21314e-62 -1.63947e-07 -2.11778e-07)
(-1.16036e-61 -1.89525e-07 -2.78828e-07)
(1.61781e-60 3.95474e-07 4.08237e-08)
(-3.57991e-60 4.94142e-08 -2.47857e-09)
(3.86262e-53 -4.01136e-09 3.86268e-08)
(-1.21799e-71 -1.43896e-08 -1.50645e-07)
(1.91985e-70 -1.5456e-07 -1.64423e-07)
(-9.93816e-70 5.82442e-08 -2.02171e-07)
(3.08439e-68 -1.61944e-08 -5.12317e-08)
(-7.9142e-70 1.90249e-07 2.00456e-08)
(8.28148e-64 -6.35946e-08 -1.86905e-07)
(9.07345e-67 4.82793e-08 -3.1411e-07)
(-9.01098e-74 -2.65121e-08 -4.09329e-09)
(1.12397e-69 4.00732e-08 -8.18965e-08)
(-3.72187e-66 -1.34762e-07 1.24763e-06)
(-2.55424e-59 -1.1369e-08 8.68238e-08)
(6.6894e-66 5.75414e-08 -1.65867e-08)
(-1.87645e-67 1.23394e-08 -4.11583e-07)
(-3.15527e-68 1.17502e-09 7.57204e-07)
(-1.05684e-24 -8.70021e-09 -4.07275e-08)
(1.14712e-31 -2.43145e-08 -2.76858e-08)
(-5.67721e-32 -4.41244e-09 -4.44611e-07)
(-5.14473e-37 -2.33863e-08 4.49351e-09)
(7.8627e-37 1.77349e-08 -4.22326e-08)
(2.90502e-40 6.86505e-09 8.65166e-09)
(5.9135e-42 -7.08739e-09 -1.89168e-07)
(-2.90542e-53 -4.02453e-08 -6.77343e-08)
(1.52511e-66 1.91562e-08 -1.91543e-07)
(6.33271e-72 -1.45486e-07 2.39099e-07)
(8.41648e-73 -2.70747e-08 -1.16905e-07)
(-7.13385e-72 1.7756e-08 -4.86289e-08)
(1.58384e-72 7.26917e-08 -8.49715e-07)
(5.42394e-81 -1.28581e-07 -5.22051e-08)
(-5.01672e-83 6.40887e-08 1.53568e-07)
(7.50693e-81 3.95473e-08 5.73282e-08)
(-3.86428e-89 1.66943e-08 -2.92071e-07)
(-4.47703e-79 7.78429e-08 -1.28227e-06)
(-5.91663e-68 -1.25849e-07 -2.46848e-08)
(3.62559e-67 -7.24491e-08 -3.59365e-07)
(-2.87292e-67 6.3301e-08 -3.9791e-08)
(-2.18157e-69 -4.1382e-08 -2.60089e-07)
(0 0 0)
(5.49531e-78 -4.77868e-08 -3.479e-07)
(-1.34004e-76 -1.40938e-07 -2.36082e-07)
(2.42573e-76 6.90657e-08 -1.21551e-07)
(3.56485e-92 1.79843e-08 -2.74991e-07)
(1.89654e-75 -1.90072e-08 -1.34194e-06)
(-8.99e-64 5.13773e-08 -8.33292e-08)
(-1.09444e-66 -3.55148e-08 4.35585e-08)
(-3.12867e-73 5.33146e-09 5.76647e-09)
(-1.15602e-69 -2.99686e-08 -1.63773e-07)
(-5.93953e-70 -2.75538e-08 1.47773e-07)
(-1.2246e-83 -2.70053e-08 -2.31199e-07)
(-2.25915e-73 2.20056e-08 4.25862e-09)
(1.06895e-74 3.32059e-08 1.0171e-07)
(-5.72231e-84 1.06876e-09 -5.4696e-10)
(4.56721e-25 -3.31975e-08 -8.93767e-08)
(-4.01999e-28 -1.30306e-08 1.58547e-07)
(2.82159e-32 -1.44957e-08 -1.57729e-07)
(-2.57395e-36 1.05151e-08 2.07016e-08)
(-1.76021e-38 -4.19035e-09 3.67474e-07)
(-2.98921e-39 -4.72114e-09 4.52459e-09)
(-1.28122e-41 -2.09567e-08 1.67637e-07)
(-2.61712e-47 -3.41599e-11 5.8712e-07)
(-1.93343e-68 -1.0731e-07 1.22895e-07)
(5.85536e-77 -1.05404e-08 7.26221e-09)
(1.84184e-77 1.08629e-07 2.02066e-07)
(-9.57864e-78 3.88402e-08 2.15869e-07)
(-1.56569e-73 -5.44222e-08 9.52494e-07)
(-2.84024e-87 -6.0973e-08 2.23991e-07)
(-1.28945e-87 3.51207e-08 2.32185e-07)
(-4.25748e-81 6.50789e-08 1.25921e-07)
(2.70232e-91 -1.12749e-08 2.51371e-07)
(-5.60907e-77 -1.59915e-07 1.04755e-06)
(3.52814e-70 6.38631e-08 2.18248e-07)
(-2.28989e-69 -1.47081e-08 3.075e-07)
(-1.45675e-72 -1.74683e-08 1.93129e-08)
(-3.96983e-72 1.41412e-08 2.10141e-07)
(1.64511e-78 8.51911e-08 2.55577e-08)
(-5.29724e-79 -6.86817e-08 1.49817e-07)
(1.59864e-77 1.2749e-08 3.27554e-07)
(-4.90617e-77 2.01893e-08 2.51589e-07)
(-3.71283e-85 8.03672e-08 2.37872e-07)
(-2.28922e-72 -2.13921e-08 1.35406e-06)
(7.29125e-65 1.49201e-08 1.93011e-07)
(1.9799e-67 3.07471e-08 2.06735e-07)
(-8.88294e-81 -1.05623e-09 -5.42621e-10)
(3.23426e-71 3.24012e-09 1.34548e-07)
(-1.37285e-83 2.38837e-09 -2.55551e-06)
(1.99783e-82 -8.4371e-08 1.55948e-07)
(1.75948e-75 3.30749e-08 -3.45091e-08)
(-2.23323e-76 4.27985e-08 2.46428e-07)
(1.65817e-85 -3.72289e-10 -3.61944e-08)
(1.09245e-24 9.37159e-08 7.05231e-08)
(1.73351e-33 -1.58089e-09 1.10822e-08)
(-5.61658e-33 8.62841e-10 7.18992e-07)
(1.79727e-35 1.91248e-08 -2.59617e-08)
(8.25283e-39 -3.6261e-09 4.7125e-08)
(5.85878e-38 -2.65782e-09 -5.33315e-09)
(6.89882e-42 -6.90293e-08 5.94085e-08)
(-1.89158e-48 2.37822e-07 -2.73336e-07)
(5.14285e-71 -7.34644e-08 7.97102e-08)
(-3.40734e-79 -4.71119e-08 6.69425e-08)
(-6.55461e-79 7.96299e-08 5.34415e-08)
(1.39787e-78 4.18753e-08 4.59217e-08)
(5.82078e-79 -7.48362e-08 -1.85461e-06)
(-6.51689e-86 7.98528e-08 6.20009e-08)
(3.47754e-87 2.22923e-08 1.01203e-08)
(-9.6326e-91 -1.27623e-08 -5.49985e-09)
(-1.01357e-91 1.08941e-08 -7.51123e-09)
(5.56958e-79 -3.15776e-09 1.25106e-07)
(-4.66235e-71 1.93837e-08 5.16525e-08)
(3.37992e-70 1.24927e-08 2.20486e-07)
(1.4959e-71 -2.53128e-09 6.26256e-09)
(3.18636e-72 -7.66199e-08 6.84856e-08)
(-9.62108e-78 9.366e-08 -1.6074e-06)
(3.40744e-80 -7.94727e-08 2.39611e-07)
(-9.82358e-79 -4.41726e-08 1.71458e-07)
(2.33028e-78 4.35565e-08 6.11751e-08)
(-3.19051e-86 6.87231e-08 3.61758e-08)
(9.77592e-74 -1.45053e-07 -3.88192e-07)
(-2.06038e-66 9.71818e-08 9.31171e-08)
(-1.07889e-68 -1.12511e-08 7.41891e-08)
(9.24548e-76 1.02663e-08 -6.82184e-09)
(-2.03787e-73 -1.93166e-08 1.11736e-07)
(1.37285e-83 2.46534e-08 2.54659e-06)
(3.00803e-87 -7.42857e-08 9.24316e-08)
(-1.11902e-85 4.37599e-08 1.71191e-08)
(2.24883e-78 4.51071e-08 7.45129e-08)
(-3.16896e-93 3.61384e-09 -2.80439e-07)
(-5.2431e-25 2.01841e-07 -1.13707e-07)
(1.23528e-26 1.05093e-08 3.15272e-09)
(-1.15816e-29 -1.24465e-07 1.37775e-07)
(1.77995e-29 -4.31287e-08 8.59075e-09)
(-7.74816e-30 3.23496e-08 -9.26826e-09)
(1.53391e-30 1.33676e-07 2.96851e-08)
(-3.19637e-33 -4.73551e-10 1.42067e-10)
(-8.95716e-54 -1.50252e-07 7.36195e-07)
(-8.99381e-74 -7.0827e-08 1.01927e-08)
(-2.90376e-84 -3.88267e-08 2.27606e-08)
(1.70935e-78 9.77483e-08 -1.01277e-08)
(-7.13862e-80 1.27846e-08 6.29139e-09)
(-5.82078e-79 -7.0067e-08 1.83337e-06)
(2.96269e-86 3.70477e-08 -1.1114e-08)
(-7.39907e-95 -4.19832e-08 -1.14472e-09)
(2.39944e-92 2.69707e-08 6.67973e-09)
(-2.50878e-90 2.53719e-08 4.93106e-08)
(2.81019e-81 3.26857e-08 -5.79926e-07)
(6.79515e-74 -9.63276e-11 2.37984e-09)
(-3.85681e-72 -5.64504e-08 -3.37665e-09)
(-5.70107e-73 1.60304e-08 1.60024e-08)
(-7.21688e-79 1.33924e-08 2.13739e-09)
(8.01127e-80 1.43731e-08 1.56232e-06)
(-9.11345e-82 3.35411e-09 4.0016e-08)
(5.92242e-91 -1.4262e-07 1.33429e-09)
(-6.85038e-91 1.44105e-07 -1.50644e-10)
(-1.68789e-90 -1.32262e-09 1.8419e-08)
(-1.30032e-79 -2.6146e-09 3.65222e-07)
(-3.99779e-79 4.11802e-09 -1.97136e-08)
(5.14741e-78 -4.3105e-08 7.99945e-09)
(-4.78463e-78 6.49614e-08 6.03667e-09)
(3.5729e-80 1.12712e-08 6.76724e-10)
(3.98283e-90 5.75493e-09 -9.46849e-07)
(1.4523e-93 -8.0273e-09 -1.62208e-09)
(-6.25921e-92 -2.16594e-08 9.18482e-09)
(6.26366e-92 2.01426e-08 -7.66813e-09)
(-1.47075e-93 8.23352e-09 3.18801e-07)
(6.44514e-24 2.88386e-07 -1.82075e-08)
(1.22531e-25 4.44048e-08 -3.29691e-07)
(1.08468e-40 -2.50355e-08 -7.5107e-09)
(-3.42542e-35 -1.43364e-07 -2.70011e-07)
(-9.22116e-41 -4.29731e-07 -2.34446e-08)
(2.43599e-40 5.86955e-07 -2.60836e-07)
(6.90223e-41 8.53437e-08 -2.84235e-07)
(0 0 0)
(-7.49876e-62 1.72504e-09 -3.97517e-07)
(-3.54368e-64 -8.19402e-07 -2.52871e-07)
(-8.26711e-66 4.28594e-07 -2.04287e-07)
(3.39674e-70 3.76981e-07 -2.31057e-07)
(0 0 0)
(1.65905e-95 -5.80532e-08 1.83053e-08)
(-2.38845e-94 -1.15873e-07 -8.05997e-08)
(-1.26944e-92 -2.78066e-07 -1.62249e-07)
(2.62596e-90 3.14599e-07 3.01404e-09)
(-1.00302e-82 2.6657e-08 6.18789e-07)
(-8.86215e-98 -1.02162e-07 -1.64186e-07)
(6.88233e-96 -5.21762e-07 -1.69631e-07)
(-1.32121e-94 3.97855e-07 -3.46266e-07)
(3.03922e-93 5.76224e-08 -3.54705e-07)
(-1.53339e-85 1.08326e-07 5.04001e-08)
(-6.76048e-126 -1.45184e-07 -4.77373e-07)
(5.4404e-130 -5.73516e-07 -3.19186e-07)
(-1.82073e-131 5.79031e-07 -3.15859e-07)
(7.56837e-130 1.48202e-07 -4.63985e-07)
(-5.3695e-111 -1.5645e-07 -1.04827e-06)
(-5.96955e-112 -3.65476e-07 -3.17914e-07)
(-2.6865e-107 -5.72807e-07 -2.34422e-07)
(-1.00104e-106 9.29248e-07 -2.21246e-07)
(3.8913e-104 -3.99853e-08 -4.13148e-07)
(-3.33306e-90 -1.71523e-08 -9.87361e-07)
(-2.38453e-104 6.32223e-08 -4.01919e-07)
(8.46035e-108 -4.064e-07 -1.77209e-07)
(2.22827e-111 3.28811e-07 -1.85795e-07)
(0 0 0)
(-6.31208e-33 -6.43182e-09 -1.9295e-09)
(-5.57076e-30 5.08782e-08 1.34599e-07)
(-1.71738e-32 3.39524e-08 -3.34412e-07)
(3.6853e-36 -4.38144e-08 2.40738e-07)
(-6.7019e-46 -1.8394e-07 -1.02089e-08)
(5.22935e-47 3.58736e-09 -2.64661e-08)
(-1.14981e-45 1.14965e-07 4.99931e-08)
(-1.42268e-48 3.4167e-08 -1.34275e-06)
(2.29568e-60 -8.69893e-08 1.50533e-07)
(2.05509e-62 -1.0085e-07 2.92576e-08)
(4.85912e-64 1.32804e-07 4.549e-08)
(-5.34503e-68 7.96858e-08 -8.27242e-08)
(-3.76981e-73 3.35247e-08 -1.41065e-06)
(-3.72751e-104 -1.855e-08 -3.73542e-07)
(4.06785e-101 -6.75942e-08 -1.5762e-07)
(-1.28112e-99 4.36626e-08 1.16981e-07)
(3.57793e-107 6.49666e-08 -3.06549e-08)
(8.57819e-85 1.86988e-08 7.29064e-08)
(5.77967e-105 7.0937e-09 6.1555e-08)
(2.95422e-100 -1.55153e-07 -8.54917e-08)
(-2.98044e-100 7.09464e-08 2.94657e-07)
(1.08486e-94 6.79291e-08 1.68993e-07)
(-1.08479e-94 4.89641e-08 -1.46888e-08)
(1.12821e-125 -3.16756e-08 3.20248e-07)
(-1.32067e-128 -2.9007e-07 -6.2152e-08)
(6.22058e-131 3.09873e-07 -6.08833e-08)
(3.63356e-129 3.05443e-08 2.97447e-07)
(-1.62394e-107 1.59611e-07 5.37412e-07)
(1.71428e-105 -1.44655e-08 2.01008e-07)
(-7.23675e-104 7.7817e-09 4.87697e-09)
(1.6544e-102 3.26898e-08 3.21533e-08)
(-1.94156e-102 7.72419e-08 1.83281e-07)
(-2.11592e-89 1.39235e-08 1.35313e-06)
(1.68599e-100 -7.95897e-08 1.95519e-07)
(-1.68557e-100 2.99053e-08 -8.29707e-09)
(-1.42594e-117 4.80299e-08 -1.02929e-08)
(-1.32088e-122 5.878e-09 1.69401e-09)
(3.17886e-20 -1.04514e-08 -3.93175e-09)
(-3.68752e-26 -1.98561e-08 1.94872e-07)
(1.00213e-28 -1.93622e-08 -6.83574e-09)
(-2.58657e-38 -6.37485e-08 2.80472e-08)
(-2.75381e-45 1.48162e-09 1.13439e-07)
(2.41609e-46 8.41755e-08 1.12435e-07)
(3.52413e-46 7.13847e-09 2.46944e-07)
(1.42268e-48 -6.88903e-08 1.35317e-06)
(-4.95205e-56 3.40648e-08 2.59152e-07)
(4.17451e-57 5.58649e-11 1.99296e-08)
(-1.99289e-60 1.17518e-08 2.69059e-07)
(2.40221e-62 -7.4493e-08 2.47092e-07)
(-1.24691e-64 4.74589e-08 1.3971e-06)
(1.41408e-104 1.90824e-08 3.08009e-07)
(-1.32969e-102 -3.1905e-08 1.85786e-07)
(4.23648e-101 -9.95101e-08 7.94516e-08)
(-3.90572e-108 3.10901e-08 1.11151e-08)
(4.23329e-110 9.82071e-08 2.94617e-08)
(-1.64509e-107 -3.68659e-08 -9.9511e-08)
(6.30092e-105 -1.73634e-08 1.97409e-07)
(3.36609e-104 1.37765e-08 1.47857e-07)
(1.63729e-101 7.36684e-08 1.19132e-07)
(6.72185e-115 -4.77179e-08 -5.81299e-07)
(-3.41352e-126 -3.88374e-08 1.56884e-07)
(1.41212e-127 -4.13304e-08 2.81807e-07)
(-1.26389e-128 5.95057e-08 2.83885e-07)
(-5.45954e-129 5.07808e-09 1.57798e-07)
(4.38262e-110 -5.50015e-08 5.03821e-07)
(3.47677e-112 1.3372e-08 1.4602e-07)
(-1.23144e-104 -3.70361e-08 2.98302e-07)
(-1.07629e-103 1.95096e-10 2.27928e-08)
(4.61113e-102 -1.47501e-09 2.26712e-07)
(2.5147e-89 8.99349e-09 5.27715e-07)
(-2.01756e-104 1.87919e-08 1.93522e-07)
(4.9957e-107 -2.47878e-08 5.05151e-08)
(1.99124e-115 1.9399e-08 2.62659e-07)
(-2.48342e-116 3.59886e-09 -1.35385e-09)
(-6.49185e-20 1.54467e-08 -1.04684e-08)
(-4.95047e-31 -3.06868e-09 1.57989e-08)
(2.49375e-35 -2.45942e-08 -3.14433e-09)
(6.88213e-40 -6.925e-08 -1.96218e-08)
(-1.54168e-42 3.07138e-08 7.98714e-08)
(1.19565e-43 3.7452e-08 1.69262e-09)
(-2.27861e-45 8.98182e-09 1.13359e-08)
(-2.88646e-46 -5.74251e-08 -1.409e-06)
(3.08957e-52 -5.03863e-08 5.10243e-08)
(-1.60875e-53 1.10551e-07 -1.34127e-09)
(3.00878e-55 3.69978e-09 2.66517e-08)