/*--------------------------------*- C++ -*----------------------------------*\
| =========                 |                                                 |
| \\      /  F ield         | OpenFOAM: The Open Source CFD Toolbox           |
|  \\    /   O peration     | Version:  2.2.x                                 |
|   \\  /    A nd           | Web:      www.OpenFOAM.org                      |
|    \\/     M anipulation  |                                                 |
\*---------------------------------------------------------------------------*/
FoamFile
{
    version     2.0;
    format      ascii;
    class       vectorField;
    location    "0.01";
    object      torque;
}
// * * * * * * * * * * * * * * * * * * * * * * * * * * * * * * * * * * * * * //


2405
(
(-4.75807e-11 -1.63775e-27 1.21434e-28)
(4.44117e-12 2.68643e-27 -2.4586e-27)
(-1.92313e-10 5.65071e-26 -2.45865e-27)
(-2.22948e-11 -2.14283e-26 3.03271e-28)
(1.82944e-11 7.72907e-29 -1.1334e-27)
(-4.31684e-11 7.09347e-27 -1.3087e-27)
(-3.415e-11 6.26671e-27 -1.30079e-28)
(8.41949e-11 7.9523e-27 -2.08276e-28)
(6.97818e-12 2.34818e-28 -1.0469e-28)
(-5.6234e-12 2.67625e-30 1.09177e-28)
(-2.04553e-11 9.74773e-27 1.35719e-28)
(-1.66986e-11 -4.52318e-32 1.3013e-28)
(1.64166e-10 -3.49192e-27 -8.31679e-27)
(1.89475e-11 -2.3304e-27 8.67156e-29)
(-1.69075e-11 2.99938e-27 -5.96821e-28)
(2.16969e-12 9.93996e-32 -2.65952e-30)
(-3.61026e-11 -7.27222e-28 -1.21002e-29)
(-1.33555e-10 -6.08322e-27 4.77157e-30)
(4.33788e-11 -1.70923e-26 4.76618e-30)
(6.31856e-11 -1.21319e-35 6.43206e-31)
(8.40614e-12 -3.20618e-29 9.82727e-29)
(4.99584e-11 2.16768e-26 -6.2495e-29)
(-8.27961e-11 4.8725e-26 -1.22359e-28)
(6.05959e-12 2.45101e-27 -3.41294e-27)
(9.4032e-12 6.63145e-28 -2.55465e-27)
(1.84852e-11 -4.45176e-34 9.71698e-28)
(2.61199e-11 -2.15488e-29 1.13407e-28)
(-8.147e-11 7.22284e-27 -1.6986e-28)
(6.72542e-11 -3.10095e-27 9.97445e-29)
(-1.76728e-12 2.72705e-33 3.00926e-28)
(-4.68644e-11 -1.45381e-27 3.1334e-29)
(-2.54936e-11 -1.88178e-26 -7.43543e-28)
(1.11608e-11 2.1682e-29 -4.85621e-28)
(7.75872e-12 4.54752e-34 2.5789e-28)
(1.591e-12 3.5657e-36 -1.14692e-30)
(-1.24626e-11 -4.68006e-27 -1.14286e-30)
(5.08249e-14 -1.04981e-40 -3.31379e-47)
(1.56066e-11 4.1015e-28 -5.7083e-28)
(-3.60913e-11 1.68043e-27 -3.98465e-28)
(-1.29269e-10 2.88886e-26 -3.53397e-32)
(-5.29547e-11 -2.23872e-26 -9.81907e-33)
(-3.50341e-11 -4.56758e-39 -1.57248e-32)
(-3.47173e-11 7.86853e-27 -3.68217e-33)
(-4.23109e-11 6.25659e-27 6.41978e-33)
(1.2531e-10 7.9523e-27 -5.56813e-33)
(4.34122e-11 2.34819e-28 7.22304e-35)
(3.1783e-11 2.35431e-32 -1.91303e-33)
(-5.30758e-12 8.39157e-27 -5.13698e-33)
(-1.09597e-10 -1.7013e-32 7.0693e-32)
(3.104e-11 2.0243e-28 9.39313e-32)
(1.41997e-11 -4.61125e-27 2.50874e-33)
(-3.68278e-11 1.24957e-28 3.78794e-33)
(-1.82155e-11 5.77279e-39 7.45338e-33)
(-2.25377e-13 -6.82074e-28 2.88303e-33)
(-7.30426e-11 1.39403e-26 2.76988e-32)
(7.7965e-12 -1.74726e-26 1.72396e-32)
(-4.96795e-12 -9.151e-36 -7.64366e-33)
(-2.35084e-11 1.37848e-38 2.80169e-33)
(2.46142e-11 2.16768e-26 4.15046e-32)
(-1.2893e-10 4.8725e-26 3.34616e-32)
(1.16647e-11 2.74322e-27 -1.39157e-33)
(-3.82511e-12 6.70036e-28 -1.31063e-33)
(1.00279e-11 -2.05032e-35 8.72249e-34)
(1.25785e-11 -1.99487e-29 1.24732e-33)
(-1.56785e-10 7.46411e-27 -9.13912e-33)
(-9.28671e-12 -3.10095e-27 -9.06682e-34)
(1.95766e-11 -1.39214e-33 -6.96316e-33)
(-5.36093e-13 -1.93877e-27 4.3481e-33)
(-8.25866e-12 -1.94844e-26 -2.4255e-32)
(-4.07013e-11 1.91297e-29 1.115e-35)
(-8.3189e-12 4.27567e-34 -6.51047e-40)
(1.37187e-11 1.52039e-37 -2.66588e-34)
(-7.50814e-13 -4.68006e-27 3.68272e-33)
(-2.73367e-12 3.80467e-40 -1.09433e-34)
(2.29971e-10 1.04258e-33 -4.54918e-26)
(9.77818e-12 5.17815e-32 -4.88017e-27)
(-1.93219e-10 -1.26562e-44 -7.82592e-39)
(-1.794e-10 3.84713e-33 2.20069e-37)
(8.25046e-11 1.58648e-43 2.17823e-37)
(-1.10933e-10 2.43076e-34 -2.22937e-38)
(-1.00701e-10 -6.0023e-43 -1.24322e-38)
(-4.82524e-11 5.01704e-40 1.47373e-34)
(1.02477e-10 -6.00126e-32 -3.2714e-33)
(1.17577e-11 -2.11971e-38 3.70885e-33)
(3.48294e-11 -1.44349e-37 -3.7128e-32)
(-6.74078e-12 -1.52579e-37 -4.51448e-32)
(3.03398e-11 2.45702e-26 6.44448e-32)
(1.06355e-10 -9.58165e-32 9.04159e-37)
(2.2379e-10 4.58738e-42 -1.25063e-36)
(1.00044e-10 -4.46325e-42 -2.21097e-36)
(-1.63758e-11 -1.34865e-33 4.22839e-39)
(0 0 0)
(-3.0243e-11 4.28806e-33 6.66989e-39)
(-1.06086e-10 -2.26621e-43 6.08486e-38)
(7.50639e-11 6.53351e-44 -2.31896e-37)
(-1.97895e-10 -4.81121e-44 -2.6697e-37)
(8.52224e-11 1.60218e-40 4.02429e-38)
(6.76924e-11 1.04027e-42 4.86045e-37)
(6.14733e-11 -4.22699e-32 4.02654e-37)
(-5.21889e-11 2.68492e-37 4.75616e-37)
(2.26156e-10 2.90942e-31 -4.87248e-37)
(7.16267e-11 2.38061e-42 -1.0017e-36)
(3.93698e-11 -3.51347e-33 -6.07696e-37)
(8.1246e-11 -1.39213e-33 -7.11078e-37)
(-3.27214e-11 1.11127e-32 -1.69136e-37)
(-4.67803e-11 -1.38976e-32 6.80026e-38)
(-5.54808e-11 -2.23222e-30 7.80462e-36)
(4.06775e-11 1.29508e-43 4.481e-49)
(-1.18399e-10 1.55384e-42 -1.20068e-36)
(9.529e-11 -1.12333e-31 -1.75046e-36)
(1.30417e-10 1.96009e-40 -1.99227e-37)
(2.36454e-12 -2.92148e-27 -2.95773e-35)
(8.78931e-11 3.04583e-32 3.1761e-34)
(4.39516e-11 -2.71127e-34 -1.64947e-36)
(-1.24145e-10 2.19408e-33 1.29559e-39)
(-1.62144e-10 8.40459e-44 1.34185e-39)
(4.86941e-11 1.30741e-33 2.90058e-39)
(4.62935e-11 -5.27929e-43 3.57461e-48)
(-1.01805e-10 5.26674e-40 2.3156e-37)
(3.06893e-11 -8.73556e-32 1.36206e-37)
(-2.01879e-11 2.04476e-39 4.5816e-38)
(1.66269e-11 1.45454e-38 -2.09706e-38)
(-1.19852e-11 2.65625e-40 2.38738e-39)
(-1.08247e-10 -2.72642e-45 -4.86766e-41)
(-9.13675e-11 -4.0478e-31 -2.50631e-37)
(-4.13546e-11 4.60615e-42 -1.08938e-37)
(2.1475e-11 -5.36482e-43 6.39865e-39)
(-2.65978e-11 -1.471e-32 -2.07667e-38)
(6.37016e-11 -4.24232e-38 -6.93765e-39)
(-3.69262e-11 2.59576e-32 4.39846e-39)
(-1.00595e-10 -3.40909e-43 1.89125e-41)
(9.90739e-11 -3.98813e-43 1.20778e-41)
(4.81795e-11 -1.2729e-44 -6.59374e-42)
(1.9611e-10 -1.12094e-40 2.41168e-43)
(4.62372e-11 3.76541e-42 5.76149e-48)
(-7.46005e-13 8.03291e-33 1.0273e-37)
(-1.99462e-11 -6.1716e-39 8.10008e-38)
(1.64921e-10 -2.35724e-32 1.95705e-38)
(-5.11771e-11 -2.22407e-43 -7.73112e-40)
(-6.68884e-11 3.08533e-32 -9.5304e-38)
(-3.87716e-11 -2.03306e-43 6.2268e-39)
(2.91548e-11 3.30866e-32 -3.69118e-38)
(2.4705e-11 -5.42234e-33 1.00744e-37)
(-2.76407e-11 -4.9308e-45 5.92237e-42)
(5.61926e-11 -1.6727e-43 5.92237e-42)
(-6.32669e-11 -6.19223e-43 9.10811e-38)
(6.38358e-11 1.22057e-32 -2.06891e-37)
(8.80861e-12 3.72394e-45 1.75795e-38)
(-1.15979e-11 6.4613e-27 3.07263e-29)
(-5.16539e-11 -1.7438e-32 2.45837e-33)
(-8.31975e-11 -3.35717e-32 -8.15139e-35)
(8.87846e-12 -1.57642e-33 5.08296e-39)
(-6.27532e-11 -1.25163e-43 -1.04564e-38)
(2.6286e-12 1.04154e-32 -8.3553e-39)
(-1.28308e-11 2.66033e-43 7.52953e-39)
(5.17648e-11 1.54729e-39 -6.55967e-42)
(-4.75765e-11 -8.79436e-32 6.92145e-39)
(4.15821e-11 6.51728e-41 1.9566e-38)
(-3.18875e-11 -1.84935e-39 9.38151e-39)
(2.88132e-11 1.77211e-40 -1.04941e-39)
(-6.814e-11 -2.70831e-45 4.75279e-41)
(-3.92821e-12 -2.48364e-32 -5.04346e-37)
(-5.1241e-11 -1.97439e-42 -4.65571e-37)
(2.51467e-11 1.729e-43 6.11178e-38)
(3.07313e-11 1.35376e-32 -1.43585e-38)
(1.34476e-10 -4.24225e-38 -6.94005e-38)
(8.07731e-11 6.7079e-32 -1.10699e-37)
(3.64296e-11 7.45162e-44 1.86363e-38)
(-2.55114e-11 6.29827e-44 -2.10287e-49)
(4.63957e-11 -4.31437e-45 -1.70987e-49)
(-5.89157e-11 -2.72712e-40 8.51634e-46)
(1.40089e-11 -3.04618e-42 1.55579e-39)
(3.63781e-12 -1.26581e-31 2.17915e-37)
(-3.495e-11 2.77415e-40 -1.67796e-41)
(2.53363e-11 7.46163e-34 3.62746e-40)
(2.93625e-11 -2.29053e-43 1.79115e-41)
(-1.87404e-11 6.72254e-32 -2.74091e-38)
(9.5573e-12 -1.84653e-42 -1.55419e-37)
(-5.58872e-11 2.77904e-31 7.16687e-37)
(-9.24201e-12 1.60886e-33 6.84403e-37)
(-2.27103e-11 -1.16309e-43 -1.255e-38)
(-1.04129e-12 -2.14424e-43 -2.27765e-49)
(-1.00104e-11 9.02606e-43 1.70383e-48)
(-1.21936e-11 -4.51789e-31 2.71724e-38)
(-1.52918e-12 6.20762e-45 -1.9882e-39)
(2.77193e-11 1.01722e-27 -6.52202e-33)
(-1.55855e-11 1.43215e-33 4.30482e-34)
(-3.37198e-11 -3.07456e-32 6.69061e-38)
(-1.64048e-12 7.66326e-35 8.67761e-41)
(4.31621e-12 -7.86239e-44 5.05613e-39)
(-3.20502e-11 9.25347e-33 -1.34614e-39)
(-5.39577e-11 3.70129e-44 -4.83113e-39)
(-6.5733e-11 -3.69884e-40 3.82186e-40)
(-4.61777e-11 -2.51592e-33 3.3894e-38)
(3.22597e-11 -9.70119e-42 1.86121e-39)
(-1.41643e-11 2.10874e-40 2.72641e-40)
(-1.4656e-11 -8.50029e-41 -1.55384e-39)
(-3.22837e-11 4.72723e-47 3.4731e-41)
(3.09446e-11 2.84128e-31 1.23174e-37)
(5.63817e-13 1.19929e-42 3.12431e-38)
(1.37494e-11 -6.36106e-44 -7.67545e-39)
(1.18807e-11 2.6562e-32 -6.39766e-39)
(-1.82626e-11 -1.21713e-45 -3.75766e-39)
(6.10353e-11 4.31493e-32 -4.78816e-38)
(2.53347e-11 2.20953e-44 7.27823e-39)
(-3.32422e-11 5.57239e-45 -2.71531e-40)
(7.08582e-11 -9.98852e-46 1.14712e-41)
(5.83311e-11 9.71196e-49 -2.85104e-43)
(-1.11349e-12 -5.20969e-42 -3.06799e-38)
(4.2693e-12 -2.23357e-31 5.58155e-38)
(-1.73115e-11 -2.86484e-42 -1.22458e-37)
(2.33514e-11 -9.27577e-36 -9.87034e-38)
(-8.89478e-12 -5.35064e-42 -5.48929e-37)
(-3.50009e-11 3.44871e-33 -6.32319e-37)
(-1.34096e-11 -2.08709e-42 1.86109e-38)
(-1.39122e-11 2.23105e-31 4.25072e-38)
(5.3938e-11 -6.86637e-33 -2.0333e-37)
(-3.76189e-11 -6.28433e-45 1.69466e-49)
(-1.51104e-11 8.2386e-44 3.27136e-50)
(1.45484e-11 -1.35053e-43 6.62762e-39)
(2.52541e-11 -8.3353e-31 1.46985e-37)
(-5.8522e-12 -3.13055e-44 1.18958e-38)
(1.5491e-12 -7.77627e-27 -1.96098e-30)
(1.40528e-12 -1.46608e-33 1.32173e-33)
(-5.25063e-11 -2.64799e-33 1.32171e-33)
(0 0 0)
(3.72185e-12 2.0146e-44 -3.24352e-41)
(3.19442e-11 -9.75592e-35 -1.02852e-40)
(-3.39295e-11 -1.16614e-43 4.23473e-41)
(-2.94415e-11 -3.70423e-40 -1.43999e-42)
(1.81441e-11 5.80847e-32 2.1072e-38)
(-8.10095e-12 3.07334e-43 -4.1459e-41)
(-3.10943e-11 1.76167e-46 -5.66975e-42)
(-2.51159e-11 3.40482e-42 3.47094e-41)
(5.55471e-11 5.70388e-46 -1.07984e-42)
(6.17944e-12 -4.91444e-49 3.76289e-41)
(1.83789e-11 -2.12721e-43 3.76289e-41)
(1.44632e-11 2.81527e-45 9.57054e-40)
(1.2667e-11 -3.37045e-34 1.12359e-39)
(1.12162e-10 4.33679e-44 7.64977e-40)
(1.43419e-10 -2.26019e-33 -7.8855e-40)
(8.74664e-12 6.24871e-46 1.98823e-44)
(-8.70761e-12 3.82227e-50 1.21841e-44)
(-1.34572e-11 -9.20644e-48 -6.78005e-45)
(-2.35971e-11 -1.01992e-50 9.18128e-46)
(-7.22803e-12 7.44221e-43 -5.79938e-40)
(1.61268e-11 -4.64736e-32 9.91668e-39)
(3.02026e-11 5.03065e-44 1.488e-39)
(1.77192e-12 5.77156e-38 -4.57189e-40)
(-5.84665e-11 2.48053e-42 2.99032e-38)
(-7.27485e-11 -2.94099e-32 1.17714e-38)
(-5.74259e-12 3.45203e-44 -4.09562e-40)
(-4.10219e-12 -3.2825e-32 -5.0351e-38)
(-1.5092e-11 1.24271e-43 3.56354e-38)
(-7.48832e-11 9.20883e-44 -2.50482e-49)
(-1.64161e-11 -1.67163e-55 6.7255e-50)
(-1.09256e-11 2.10961e-44 -2.98929e-38)
(1.50149e-11 -2.57202e-31 1.04414e-37)
(-4.37404e-12 7.65254e-45 -6.32276e-51)
(7.7087e-11 3.3517e-28 4.1931e-28)
(2.06103e-11 -6.39699e-33 6.528e-27)
(-5.12069e-12 -4.26342e-33 -2.1001e-29)
(-5.21544e-11 4.69653e-59 2.48054e-52)
(-1.01724e-10 5.78248e-46 -6.0746e-51)
(-4.1552e-11 2.18223e-52 8.34018e-50)
(-1.31957e-10 -1.92588e-53 -3.11044e-48)
(-7.38821e-11 5.95869e-41 2.21336e-46)
(-2.62795e-11 2.35403e-61 5.622e-67)
(-3.22298e-12 -2.81105e-59 -3.6829e-65)
(2.86789e-11 -6.5173e-47 -1.55957e-51)
(2.54247e-10 2.15203e-57 -1.74658e-51)
(2.88894e-10 5.18386e-46 4.17736e-52)
(-1.56111e-11 2.36815e-76 3.6807e-70)
(-4.90981e-11 9.32193e-76 4.59401e-70)
(-4.3117e-11 1.17481e-75 9.13313e-71)
(1.34275e-12 6.52524e-66 -5.05298e-72)
(1.31253e-11 2.31107e-47 1.23601e-53)
(1.10174e-14 -9.33551e-63 -3.40422e-68)
(-1.26901e-10 3.19663e-64 9.88769e-61)
(-6.74485e-11 -2.60025e-64 -2.42023e-58)
(-2.99222e-11 -2.1108e-62 2.59279e-57)
(1.04503e-10 7.16092e-52 4.76321e-57)
(6.09786e-11 -8.96558e-63 -1.11457e-57)
(1.28176e-10 -1.34657e-64 5.3419e-59)
(3.70085e-13 -1.79918e-67 -1.63695e-61)
(-5.29985e-11 -7.53496e-70 1.81173e-75)
(-7.62882e-11 -8.18331e-51 -1.26976e-56)
(1.04603e-10 1.2476e-61 1.00981e-55)
(-1.28422e-10 -1.79731e-59 -4.56709e-54)
(-1.42917e-10 -1.04264e-57 4.71978e-52)
(-6.66853e-11 2.46986e-56 2.35954e-51)
(4.22411e-11 -6.73632e-44 -2.64189e-49)
(9.09701e-12 1.26603e-60 3.3434e-66)
(2.61448e-11 -1.00758e-64 5.05208e-67)
(8.52208e-11 1.58593e-65 6.75864e-67)
(5.88954e-11 -3.33101e-66 1.69907e-67)
(-4.79932e-11 2.2369e-28 1.22898e-27)
(1.12096e-11 -5.09998e-34 -1.04161e-28)
(4.12894e-11 1.02751e-33 -3.89783e-39)
(1.10005e-11 3.95029e-42 -6.31058e-48)
(3.46812e-11 -9.54572e-44 8.26422e-50)
(3.40866e-11 -1.46225e-49 3.26337e-51)
(-1.01984e-10 -8.96555e-51 -1.15766e-52)
(9.66393e-11 -2.28945e-59 1.87665e-54)
(2.52881e-11 2.07754e-61 5.71787e-67)
(6.22884e-11 -1.68774e-59 -3.76837e-66)
(-8.0917e-12 7.5446e-68 5.05244e-65)
(8.77186e-11 -1.42236e-57 -1.26874e-63)
(3.43077e-11 3.49825e-70 -8.81857e-65)
(-1.0373e-10 9.60924e-77 1.0892e-70)
(4.79758e-11 8.65257e-77 -1.35674e-71)
(4.16509e-11 4.39152e-76 -1.04714e-70)
(-1.40904e-10 -2.39372e-65 4.72204e-71)
(-2.10632e-11 2.18166e-47 1.33106e-53)
(-6.30182e-11 -3.99337e-60 1.29647e-54)
(-8.22017e-11 -7.55869e-63 -2.74608e-57)
(-4.71337e-11 3.77443e-65 3.75623e-62)
(-8.06398e-12 7.94602e-64 -2.08857e-60)
(1.25793e-10 -5.20469e-52 1.63671e-57)
(-1.06166e-10 5.88501e-64 6.3749e-59)
(-6.28479e-11 6.75686e-66 -1.92994e-60)
(5.37804e-11 -2.42346e-68 3.29566e-62)
(-6.87613e-11 3.67072e-68 -4.33441e-74)
(-1.13002e-10 1.40329e-50 1.53972e-56)
(5.99224e-11 -9.21943e-62 -1.27501e-56)
(-2.98189e-11 4.49082e-63 -3.61743e-57)
(2.56902e-11 1.31688e-61 -2.86418e-57)
(1.93533e-12 7.88161e-59 1.19386e-58)
(1.6746e-12 9.11249e-60 -2.10634e-54)
(1.86892e-12 3.52067e-60 -2.10634e-54)
(-2.96092e-11 -9.4091e-63 -2.85874e-57)
(-5.60712e-11 -2.1159e-63 -2.73556e-57)
(1.23468e-11 4.53516e-64 1.23183e-58)
(-2.00139e-11 1.53435e-27 -3.31273e-29)
(-1.18177e-11 6.14649e-34 -2.03804e-29)
(-3.55148e-11 8.70508e-37 6.59172e-31)
(-2.41087e-12 -5.04376e-41 -1.05532e-46)
(2.48946e-11 1.66861e-42 4.93312e-48)
(5.95444e-11 1.45315e-47 -4.60299e-50)
(-8.84473e-11 7.55156e-49 3.08792e-51)
(1.50689e-12 1.3698e-58 -7.09948e-53)
(1.95852e-11 -2.65099e-62 -6.87267e-67)
(-5.58569e-11 1.04761e-59 1.51175e-65)
(-3.5205e-12 3.96672e-68 -1.09177e-65)
(-4.14772e-12 1.30788e-58 6.02898e-65)
(-3.03646e-11 -4.5734e-70 4.029e-65)
(-2.52588e-11 3.2654e-77 -3.37286e-72)
(1.3604e-11 -2.15915e-76 9.77807e-72)
(3.17817e-11 5.19101e-77 -9.17318e-72)
(-8.14177e-11 8.55328e-65 -3.16918e-71)
(4.80986e-11 -1.29415e-48 -4.04019e-55)
(3.64438e-13 5.14343e-61 -5.51157e-56)
(2.13474e-11 8.45364e-64 1.72139e-58)
(-2.83154e-11 -1.7342e-66 -5.20124e-62)
(1.91385e-11 -4.8755e-65 2.98892e-62)
(1.39742e-11 5.81502e-53 2.75445e-59)
(-1.74217e-11 -6.55498e-66 -3.89932e-61)
(5.61796e-11 -2.42514e-67 1.07351e-62)
(-7.10187e-11 2.44983e-69 -1.11837e-74)
(-3.51256e-11 2.11568e-68 -6.9478e-74)
(8.75308e-11 2.50074e-50 6.25639e-56)
(-7.34303e-11 -1.18656e-61 -2.01863e-57)
(5.25675e-11 5.56596e-63 -1.59149e-57)
(3.34382e-11 8.4587e-63 4.5631e-58)
(2.50442e-11 -4.60773e-61 -8.40319e-67)
(2.99778e-12 1.89171e-69 1.79347e-64)
(3.51506e-11 1.25774e-60 1.54688e-64)
(4.76581e-11 -1.80248e-62 -2.8152e-65)
(-2.87639e-11 4.68972e-64 6.71186e-70)
(9.81141e-12 -2.46626e-65 -1.35609e-71)
(-5.94174e-11 1.65578e-27 -1.06133e-27)
(4.22826e-11 5.18301e-34 -2.92962e-28)
(-2.1159e-11 3.36829e-41 3.23183e-36)
(-5.78945e-12 5.05976e-40 3.05546e-36)
(-2.59336e-11 -4.75344e-42 -1.71737e-37)
(-5.4571e-11 -1.71591e-44 4.59604e-39)
(2.04313e-11 -3.50292e-47 -3.75904e-41)
(-3.23608e-12 -1.99513e-65 -5.38839e-71)
(-3.23747e-11 1.09501e-63 2.13487e-69)
(-1.20455e-10 -7.4174e-61 -9.30802e-67)
(3.16591e-11 -3.36547e-68 -2.30427e-68)
(2.83352e-11 -1.1004e-59 8.44492e-66)
(-1.75862e-10 2.7794e-71 -6.98467e-67)
(-1.03799e-11 5.67833e-78 -1.32551e-72)
(-9.47154e-11 -3.39857e-76 7.81832e-73)
(-2.94822e-11 -6.39018e-77 8.14828e-72)
(-2.92954e-12 2.22274e-65 9.1971e-72)
(8.53902e-11 -3.43737e-53 3.93077e-59)
(2.99948e-12 -1.04294e-62 -3.46392e-60)
(-3.49181e-11 -2.86981e-66 5.56974e-65)
(7.93509e-12 1.43945e-68 -1.78215e-63)
(1.38387e-11 2.41156e-66 9.06901e-62)
(4.67409e-11 -5.82542e-54 1.12014e-61)
(-2.65246e-13 4.6049e-66 -2.45029e-61)
(-1.75596e-11 4.56581e-70 4.41056e-63)
(-9.67758e-11 1.43923e-70 -4.0466e-65)
(3.08206e-11 -1.37334e-68 2.8053e-68)
(2.34732e-11 -7.25873e-51 -1.30306e-56)
(-7.13313e-11 -5.3439e-62 -1.33859e-57)
(2.40845e-12 -6.99814e-63 1.22101e-59)
(6.82844e-12 -4.24356e-64 -3.17071e-62)
(-4.69481e-11 5.40068e-67 1.4882e-64)
(1.77794e-10 6.20005e-72 -1.88736e-66)
(4.76691e-11 7.36026e-60 -3.16777e-67)
(-1.31061e-11 -2.29686e-64 7.54583e-68)
(-2.31109e-11 -6.46566e-65 1.8983e-70)
(-4.41517e-12 2.64044e-67 6.52316e-75)
(7.70048e-11 3.27026e-28 1.95602e-30)
(7.34756e-12 6.31686e-34 2.13743e-31)
(-1.98199e-10 1.10553e-34 -4.07974e-34)
(-1.58765e-11 -4.98386e-39 -3.79967e-34)
(5.70954e-12 1.4132e-40 2.80069e-35)
(-4.57136e-13 -5.94866e-72 -7.02356e-66)
(-3.74187e-12 5.50705e-58 3.91723e-64)
(-4.28113e-12 -1.99513e-65 9.46861e-72)
(-1.54108e-11 -4.4106e-65 -2.61159e-69)
(-6.08184e-13 1.53262e-62 2.69571e-68)
(5.04456e-11 2.05745e-69 -8.26238e-68)
(-3.16977e-12 6.94997e-62 1.79617e-67)
(-2.34337e-10 -1.34671e-71 1.05863e-78)
(-3.51513e-11 -5.54674e-78 5.31506e-74)
(1.03421e-13 2.8425e-78 -2.80662e-73)
(3.02735e-11 2.07166e-78 1.40895e-72)
(-3.02485e-11 -9.37678e-65 4.87669e-71)
(1.41347e-10 -3.43737e-53 4.04859e-59)
(5.43454e-11 1.71063e-64 -2.2364e-60)
(-3.2553e-11 5.24139e-68 4.7574e-62)
(-2.06196e-11 1.44274e-68 2.50776e-63)
(-3.20819e-12 -1.48355e-67 -5.65875e-63)
(1.1036e-11 5.66277e-55 5.64428e-62)
(2.18813e-11 -4.4408e-66 5.55852e-72)
(-6.28796e-11 -2.25947e-70 6.72952e-76)
(-3.1525e-11 -1.31529e-72 2.86568e-76)
(8.69656e-12 2.51205e-69 -5.53038e-75)
(4.00824e-11 -1.00499e-50 -8.30399e-57)
(9.8934e-11 6.56923e-62 -5.41439e-68)
(8.47881e-12 2.65666e-63 1.0301e-68)
(5.57763e-11 6.35704e-66 9.36926e-70)
(-3.25804e-11 3.50376e-67 -8.70765e-71)
(4.20256e-11 1.73383e-71 7.50915e-77)
(-2.1587e-11 -7.04254e-61 -1.93521e-67)
(-8.33414e-12 1.16372e-62 6.2137e-70)
(-6.22519e-13 3.18011e-66 -1.1412e-72)
(-6.70398e-12 -3.2621e-69 3.45413e-74)
(6.46683e-11 -1.80962e-29 5.8705e-35)
(2.47011e-11 -1.30288e-34 7.66404e-30)
(-1.60405e-10 1.19388e-34 7.66404e-30)
(-5.84429e-11 -2.46964e-41 -6.1223e-47)
(2.14561e-11 -6.22237e-42 -6.49366e-48)
(5.39248e-11 -1.37201e-44 3.32461e-48)
(-3.28473e-12 5.50705e-58 3.98747e-64)
(-1.20365e-10 7.75231e-57 -6.48739e-63)
(8.71603e-11 4.24553e-67 2.2692e-73)
(2.50038e-11 -1.13791e-80 8.71826e-75)
(-3.60522e-11 4.82042e-80 -5.90993e-77)
(-2.55167e-12 -3.27695e-80 1.21791e-79)
(6.76963e-11 -2.85454e-75 -1.97112e-81)
(-1.30298e-11 -1.67721e-89 4.38064e-89)
(1.85521e-10 2.6187e-93 -5.22578e-89)
(1.04002e-10 -6.49899e-84 -4.65136e-89)
(1.00386e-11 2.54195e-96 -1.93222e-101)
(0 0 0)
(-2.20753e-11 5.8491e-71 -2.42628e-65)
(6.48745e-11 6.97766e-70 1.83546e-64)
(-5.01358e-11 -8.361e-69 -2.82e-63)
(1.95657e-11 4.47598e-68 1.1042e-63)
(-1.14774e-11 -7.72523e-56 -2.38792e-61)
(-1.10561e-10 3.50399e-80 2.43598e-74)
(8.91788e-12 -3.19477e-79 -3.35249e-73)
(2.23133e-10 3.02361e-78 1.26841e-72)
(3.10227e-11 -5.84769e-71 4.51133e-74)
(-4.00895e-11 7.32403e-78 -1.58284e-72)
(1.27189e-10 1.6563e-66 -2.87759e-72)
(-9.65585e-11 1.81469e-69 1.67873e-76)
(2.05492e-11 6.10424e-83 1.8022e-76)
(-1.98352e-11 2.24776e-72 1.84247e-76)
(-2.59601e-10 -9.61819e-72 7.45571e-69)
(-1.02762e-10 5.10848e-62 -9.04025e-68)
(5.50921e-11 -2.47482e-74 1.26282e-68)
(7.41534e-11 6.88174e-76 -3.7529e-70)
(2.33972e-12 6.31055e-71 -4.29456e-76)
(-6.74039e-12 -2.11368e-27 -6.53428e-34)
(-4.43352e-11 3.43049e-35 1.50701e-34)
(-1.79637e-11 4.62874e-35 2.46617e-35)
(-2.84133e-11 4.69284e-40 1.54762e-39)
(8.01258e-12 1.24779e-41 1.54762e-39)
(2.96019e-11 5.53563e-43 -1.15237e-50)
(1.41749e-11 1.1827e-44 3.92868e-51)
(-1.60233e-10 -4.26038e-56 -9.01522e-62)
(-4.84323e-11 -2.97308e-69 7.05598e-75)
(-6.48176e-11 1.96008e-80 -1.25033e-74)
(-1.72049e-11 -7.84076e-81 -2.68521e-74)
(-8.26142e-11 -2.4992e-80 -1.42677e-74)
(-5.0491e-11 -2.5414e-75 -1.28162e-81)
(-8.41575e-11 6.18349e-91 1.0647e-83)
(5.08241e-11 1.41932e-92 -1.00481e-85)
(2.7295e-11 2.01597e-84 -8.52098e-90)
(-1.38603e-11 -3.51276e-94 -7.69289e-92)
(-1.55689e-10 -8.95406e-82 1.19933e-87)
(-1.47962e-10 3.11065e-74 1.17076e-70)
(-6.6604e-11 -2.25987e-71 -4.60546e-70)
(-1.1474e-11 1.27403e-72 -5.81987e-70)
(1.20269e-10 1.55676e-75 -4.3647e-72)
(0 0 0)
(-4.99105e-11 -9.00437e-81 -4.61146e-86)
(-5.26486e-11 2.07992e-79 7.04632e-85)
(-5.37113e-11 -2.98221e-79 -3.24954e-85)
(-3.59674e-11 7.1297e-95 1.59996e-100)
(3.80134e-11 3.79308e-78 -1.35899e-84)
(7.36955e-11 1.51459e-66 -2.77707e-72)
(-6.01133e-11 1.44029e-69 1.99425e-73)
(8.18365e-12 6.48509e-82 -6.24064e-76)
(-2.56171e-11 2.18349e-72 4.33066e-78)
(-8.14272e-11 1.1879e-72 4.59866e-78)
(5.35702e-11 -5.53e-92 2.44919e-86)
(1.24112e-11 4.44793e-76 2.72047e-82)
(2.58379e-11 -2.04946e-77 1.38416e-84)
(2.79788e-13 8.97889e-93 -1.14446e-86)
(5.66707e-11 -3.31472e-27 -8.05744e-31)
(-2.4414e-11 7.09208e-35 -8.03913e-31)
(4.6923e-11 -3.54862e-35 3.76141e-41)
(1.44242e-12 -4.16032e-39 3.82958e-43)
(-4.28494e-12 2.19293e-42 -3.96678e-48)
(-1.03162e-12 -4.84385e-42 -1.62525e-49)
(3.23948e-11 -1.97063e-45 1.96631e-49)
(3.20701e-11 1.77232e-55 -5.23424e-50)
(-2.97826e-11 3.84632e-71 4.82717e-77)
(4.11095e-11 8.05832e-81 1.25337e-79)
(4.91423e-11 -4.13364e-80 -2.84109e-82)
(-6.09552e-11 1.38514e-80 4.36985e-86)
(-1.0884e-10 3.13138e-76 6.78754e-82)
(1.211e-11 5.56297e-90 -2.17576e-91)
(-5.37723e-12 -1.15209e-93 2.14492e-90)
(-3.1726e-11 8.51495e-84 1.77098e-89)
(-2.57212e-11 -1.67741e-94 -9.79673e-100)
(-1.04854e-10 -7.80049e-82 1.13191e-79)
(9.19102e-11 -5.19407e-73 -5.9241e-80)
(-5.04531e-13 3.24323e-72 2.6505e-78)
(-7.6899e-12 -5.46425e-74 2.28637e-80)
(7.04591e-11 -4.80575e-75 -2.15676e-80)
(-5.11147e-11 -1.14855e-86 3.29022e-81)
(-1.049e-10 9.26793e-82 5.11735e-88)
(5.87085e-11 -2.80434e-80 1.13636e-86)
(-7.46065e-11 8.88022e-80 2.40014e-86)
(-1.9487e-11 1.71612e-94 -7.42566e-88)
(6.2253e-11 3.81315e-78 4.57464e-75)
(-6.56986e-11 -1.37583e-67 -9.19808e-74)
(2.71784e-11 -3.52822e-70 1.02809e-75)
(-1.36664e-12 -1.20531e-84 1.89804e-83)
(3.3374e-11 -6.38701e-74 3.07469e-81)
(-4.77562e-12 -2.7457e-86 -5.97992e-93)
(1.4901e-10 9.78973e-91 -3.99566e-85)
(2.88867e-11 -3.51895e-78 3.55625e-84)
(-4.30515e-11 4.3765e-79 1.07792e-85)
(7.05653e-12 -1.22921e-93 3.31635e-88)
(-2.60208e-11 8.40634e-30 -2.25596e-28)
(2.21292e-12 -3.46701e-36 1.52074e-42)
(6.1925e-11 9.71245e-36 2.11239e-42)
(-2.5042e-11 2.66367e-38 2.92373e-44)
(-9.91293e-13 -1.65057e-41 5.00297e-48)
(5.80114e-12 1.06353e-40 3.49214e-46)
(3.46591e-11 -1.37976e-44 6.67426e-51)
(-2.18365e-10 -5.12199e-56 -3.78325e-51)
(-2.1207e-11 -1.02497e-73 4.01524e-80)
(6.08042e-11 -3.69401e-82 -1.05096e-81)
(6.0671e-11 -5.52653e-81 -4.24986e-86)
(2.04315e-12 -2.51018e-81 3.58221e-87)
(-1.30749e-10 1.16416e-81 9.38752e-88)
(-3.12948e-11 -1.67888e-91 -1.16599e-88)
(5.01654e-11 2.46398e-95 6.95127e-90)
(-8.27189e-12 9.55642e-99 -1.91129e-93)
(-4.56107e-12 1.62391e-94 7.61566e-96)
(2.69174e-12 1.09092e-82 -1.23386e-81)
(3.31852e-11 9.29752e-74 5.99927e-80)
(3.61302e-11 -6.60558e-73 7.35401e-80)
(-1.40664e-11 -2.76378e-74 -1.57825e-79)
(5.32655e-11 -6.37269e-75 -1.00271e-80)
(2.80382e-11 2.52791e-85 -1.92421e-80)
(-5.9047e-11 -6.45034e-83 -1.47313e-88)
(4.86571e-11 1.96472e-81 2.46992e-88)
(-5.71058e-11 -4.66055e-81 -1.08441e-87)
(-7.76932e-12 1.77002e-95 -6.38102e-89)
(-1.40874e-12 -2.16584e-81 -1.95518e-76)
(-9.71505e-11 4.12077e-69 1.57226e-75)
(6.80344e-12 2.15779e-71 -8.8354e-78)
(7.36155e-12 -9.28072e-84 1.8491e-78)
(3.32947e-11 4.07574e-76 -2.50977e-82)
(1.3069e-11 -2.7457e-86 -5.72534e-92)
(-3.54908e-11 -1.44169e-92 -6.00161e-90)
(-5.87377e-11 1.08449e-93 2.11801e-88)
(5.97551e-12 -4.49767e-81 -5.90809e-88)
(4.27152e-12 6.25355e-96 -2.17477e-103)
(-9.82966e-12 8.98091e-28 5.216e-28)
(-6.30555e-12 1.2112e-34 2.47056e-29)
(2.4748e-11 -8.69368e-37 2.3164e-32)
(-2.0939e-11 -6.28269e-38 1.07291e-32)
(-2.49577e-11 -5.82903e-38 -9.37348e-33)
(-1.0658e-11 -1.18988e-38 3.05503e-33)
(-2.84131e-13 -1.90027e-41 -6.39273e-36)
(-3.00503e-10 1.79143e-56 -2.17034e-63)
(-2.23715e-11 1.79876e-76 9.49909e-83)
(1.96955e-12 2.44637e-92 2.88192e-87)
(1.86424e-11 -3.4187e-81 3.46378e-87)
(9.76893e-13 1.42772e-82 -2.02064e-88)
(-4.38068e-11 1.16416e-81 1.12156e-87)
(2.22286e-11 -4.26794e-94 5.92538e-89)
(-6.59316e-12 2.33224e-98 1.24658e-97)
(-1.02039e-11 -5.15701e-101 -4.77394e-95)
(-1.18642e-11 -2.36021e-95 4.94616e-93)
(-5.07158e-11 -5.22261e-84 -3.66818e-90)
(1.74012e-12 -1.35903e-76 1.44983e-82)
(-9.93862e-12 7.71361e-75 -1.51042e-82)
(-6.11485e-12 1.14022e-75 2.21462e-81)
(1.01133e-11 -6.7938e-87 -1.12304e-81)
(-4.48329e-12 -5.64744e-86 1.60169e-82)
(1.05095e-11 1.82269e-84 1.30612e-90)
(-5.89601e-13 -1.28393e-99 -8.30942e-93)
(1.77769e-12 -1.89939e-101 -8.12382e-93)
(-4.36772e-12 -1.10384e-96 -3.37687e-93)
(8.71916e-11 2.62579e-82 -2.51579e-84)
(3.22948e-12 1.93085e-88 7.94526e-82)
(-2.01973e-11 4.59883e-86 -8.70073e-81)
(-5.42141e-14 7.28479e-86 -9.42631e-81)
(-1.35355e-12 3.1762e-88 7.1458e-83)
(-1.15112e-11 7.96565e-93 -5.44762e-99)
(-3.31365e-12 3.81977e-96 -6.72433e-96)
(5.43593e-12 -3.82909e-96 1.15565e-94)
(4.56892e-12 5.63955e-100 1.19306e-94)
(-6.86165e-12 -4.21817e-98 -2.98369e-96)
(1.18769e-10 -3.11359e-28 1.3069e-26)
(2.61284e-11 4.32109e-33 2.45056e-28)
(-1.50213e-11 3.45896e-49 -2.16936e-43)
(-2.10638e-10 5.38679e-38 -1.58821e-43)
(4.54047e-11 -7.82221e-49 1.06606e-42)
(2.9082e-10 -9.68905e-50 7.63284e-43)
(3.84634e-12 1.53475e-48 1.38043e-43)
(0 0 0)
(-9.88439e-11 -1.49975e-64 -6.93274e-70)
(-3.48881e-10 -7.08743e-67 3.40462e-72)
(-1.74206e-10 -1.65341e-68 -8.65861e-74)
(-3.38888e-11 6.78904e-73 4.40565e-76)
(0 0 0)
(3.84836e-11 -8.70088e-104 -3.31811e-98)
(-3.1672e-11 1.01508e-102 4.11329e-97)
(2.00148e-10 6.80752e-101 2.62778e-95)
(1.3794e-10 3.33985e-97 -5.20061e-93)
(2.79066e-11 1.97173e-85 6.02408e-91)
(4.13316e-11 -8.81887e-108 1.77243e-100)
(-8.36199e-11 -3.13612e-104 -1.34102e-98)
(5.49015e-11 1.20947e-103 2.37067e-97)
(1.73046e-10 -5.32648e-102 -5.57716e-96)
(-5.75464e-11 3.06679e-88 1.10113e-93)
(-5.22117e-11 -1.3521e-128 -3.67525e-134)
(-1.94222e-10 1.08148e-132 4.94216e-135)
(1.81105e-10 -3.55426e-134 -7.83441e-136)
(-1.08321e-12 1.51363e-132 3.90239e-137)
(3.12905e-10 -1.0739e-113 -2.25799e-119)
(-4.01591e-11 9.46201e-115 2.14012e-114)
(3.9855e-10 -5.37342e-110 -4.33682e-117)
(2.73569e-10 -2.00203e-109 1.88548e-114)
(1.18792e-10 7.7826e-107 -3.28245e-112)
(1.12842e-11 9.26518e-93 -5.22729e-99)
(-1.26441e-10 -4.76906e-107 -2.04831e-112)
(-2.01264e-10 1.69251e-110 4.53329e-114)
(-1.16771e-10 -1.20689e-120 4.45654e-114)
(0 0 0)
(-3.85909e-12 8.50154e-41 1.26242e-35)
(4.03748e-11 -1.40934e-33 -2.17931e-35)
(-6.73641e-11 4.38851e-38 -3.43913e-35)
(-8.19527e-11 -7.26935e-39 -3.01942e-44)
(-1.10066e-10 -2.42463e-49 -9.01609e-50)
(8.17893e-11 -6.17341e-50 -6.23983e-50)
(4.9743e-11 1.00009e-48 2.77526e-50)
(-6.83356e-11 -2.84536e-51 1.73687e-57)
(-1.18171e-10 4.2914e-63 -2.4502e-70)
(-5.7245e-11 3.96842e-65 5.45721e-71)
(2.44527e-10 9.38759e-67 -4.0567e-72)
(-5.38891e-11 -1.05586e-70 4.37277e-74)
(-6.70465e-11 -7.53961e-76 -7.85037e-82)
(3.54929e-11 1.96486e-107 2.35638e-112)
(5.36534e-12 -7.60873e-104 -2.94373e-109)
(3.70679e-11 2.39563e-102 2.50399e-108)
(9.27936e-13 -1.03876e-115 7.15585e-110)
(3.73973e-11 -1.71564e-87 4.86678e-93)
(-8.62847e-12 -1.14935e-107 -5.60723e-113)
(-6.96891e-11 1.71872e-105 -5.9259e-103)
(4.42544e-11 3.36095e-105 -5.9259e-103)
(1.39573e-10 -1.32121e-101 -2.16958e-97)
(2.93784e-11 1.65304e-102 -2.16958e-97)
(1.67001e-11 -4.47779e-129 -3.06777e-134)
(-3.20223e-10 -2.42505e-131 1.7881e-136)
(3.08111e-10 5.32252e-134 9.96592e-137)
(-6.85181e-11 1.02944e-131 -9.94826e-138)
(1.79174e-10 -7.00833e-113 3.24301e-110)
(-3.36577e-11 8.66666e-114 -3.3637e-108)
(-5.74936e-11 1.16853e-108 1.39219e-106)
(-4.62146e-11 1.40815e-107 -3.00907e-105)
(1.18145e-10 -5.75794e-106 -3.15168e-105)
(1.7743e-11 -3.97194e-92 -8.58004e-100)
(-9.56145e-11 -1.02095e-107 -3.37114e-103)
(1.4418e-11 7.85682e-109 -3.37114e-103)
(1.28026e-10 1.39901e-120 1.95885e-126)
(-3.36445e-12 -2.64299e-125 1.22028e-128)
(3.51412e-12 6.3577e-23 -4.58379e-29)
(-1.80864e-11 -6.00722e-33 -7.33569e-29)
(-6.16587e-11 -1.58818e-36 2.00426e-31)
(4.67737e-11 4.95209e-41 8.08196e-47)
(6.01315e-11 1.0053e-48 -7.09466e-48)
(2.27803e-11 7.81201e-50 5.25392e-49)
(7.20115e-12 -6.02225e-49 -2.02401e-50)
(-4.75016e-11 -2.84536e-51 1.64626e-57)
(4.24693e-11 -7.35616e-62 -8.22632e-59)
(-5.88274e-12 -2.62068e-63 8.34391e-60)
(3.92909e-11 -4.99896e-65 -3.83837e-63)
(-6.0205e-11 2.45333e-68 4.75207e-65)
(-3.99327e-11 2.92304e-73 -2.49382e-67)
(3.39612e-11 -2.66202e-107 2.75299e-113)
(8.79542e-11 2.61017e-105 1.30571e-112)
(5.63559e-12 -8.18746e-104 1.0845e-109)
(-2.87026e-11 2.37593e-116 -7.64211e-111)
(-5.89242e-11 3.09423e-118 8.46658e-113)
(-5.99003e-11 3.28877e-110 2.68752e-115)
(4.52398e-12 -1.26018e-107 -3.67376e-113)
(6.9127e-11 -6.70294e-107 2.05674e-111)
(-3.53683e-11 -3.27458e-104 -2.75874e-110)
(9.54356e-11 1.34437e-117 -2.04561e-124)
(6.59804e-11 1.12593e-128 1.07487e-134)
(-8.28152e-11 2.31763e-130 -2.6214e-135)
(4.34244e-11 -2.51002e-131 -2.05721e-137)
(-7.85331e-11 6.64243e-132 -2.77336e-138)
(-9.86548e-11 -3.13873e-113 -1.47265e-118)
(7.00127e-11 -5.15707e-115 -1.79647e-115)
(-3.9841e-11 -2.2184e-107 1.79624e-113)
(1.41098e-11 -1.86678e-106 -2.67924e-112)
(-8.14887e-12 7.91504e-105 4.90767e-111)
(-2.80915e-11 -3.17438e-92 1.55862e-98)
(2.25506e-11 3.2879e-107 -4.83608e-114)
(-9.3898e-12 -9.4756e-110 4.53798e-116)
(6.1446e-12 -6.85223e-121 2.98145e-118)
(-2.82223e-12 1.78845e-124 -4.96684e-119)
(3.52463e-12 -2.69027e-24 9.85408e-28)
(5.87552e-12 9.90094e-34 -3.48079e-40)
(7.02656e-11 1.00038e-37 3.02125e-41)
(5.37542e-11 -8.36937e-43 -2.84758e-45)
(4.38732e-11 1.83941e-48 -2.61225e-45)
(-1.22985e-11 -1.48339e-51 2.30132e-46)
(3.79198e-12 6.24926e-50 -4.49689e-48)
(-9.356e-11 -5.77292e-49 3.10911e-55)
(-2.19804e-11 4.59721e-60 5.54763e-55)