/*--------------------------------*- C++ -*----------------------------------*\
| =========                 |                                                 |
| \\      /  F ield         | OpenFOAM: The Open Source CFD Toolbox           |
|  \\    /   O peration     | Version:  2.2.1                                 |
|   \\  /    A nd           | Web:      www.OpenFOAM.org                      |
|    \\/     M anipulation  |                                                 |
\*---------------------------------------------------------------------------*/
FoamFile
{
    version     2.0;
    format      ascii;
    class       dictionary;
    location    "constant";
    object      kinematicCloudProperties;
}
// * * * * * * * * * * * * * * * * * * * * * * * * * * * * * * * * * * * * * //

solution
{
    active          true;
    coupled         false;
    transient       yes;
    cellValueSourceCorrection off;

    interpolationSchemes
    {
        rho             cell;
        U               cellPoint;
        mu              cell;
    }

    integrationSchemes
    {
        U               Euler;
    }
}

constantProperties
{
    rho0            1000;
    youngsModulus   1e7;
    poissonsRatio   0.25;
}

subModels
{
    particleForces
    {
        gravity;
    }

    injectionModels
    {
        model1
        {
            type            manualInjectionWet;
            massTotal       0;
            parcelBasisType fixed;
            nParticle       1;
            SOI             0;
            positionsFile   "kinematicCloudPositions";
            U0              ( 0 0 0 );
            sizeDistribution
            {
                type        fixedValue;
                fixedValueDistribution
                {
                    value   0.002;
                }
            }
            initialLiquidVolumePerParticle    1e-8;
        }
    }

    dispersionModel none;

    patchInteractionModel none;

    surfaceFilmModel none;

    collisionModel pairCollision;

    pairCollisionCoeffs
    {
        // Maximum possible particle diameter expected at any time
        maxInteractionDistance  0.002;

        writeReferredParticleCloud no;

        pairModel pairSpringSliderDashpot;

        pairSpringSliderDashpotCoeffs
        {
            useEquivalentSize   no;
            alpha               0.12;
            b                   1.5;
            mu                  0.3;
            cohesionEnergyDensity 0;
            collisionResolutionSteps 12;
        };

        wallModel    wallSpringSliderDashpot;

        wallSpringSliderDashpotCoeffs
        {
            useEquivalentSize no;
            collisionResolutionSteps 12;
            youngsModulus   1e7;
            poissonsRatio   0.25;
            alpha           0.12;
            b               1.5;
            mu              0.3;
            cohesionEnergyDensity 0;
        };
    }
    
    wetModel pendular;
    pendularCoeffs
    {
        maxInteractionDistance    0.0024;
        surfaceTension    0.07;
        contactAngle      0;        // Radian
        liquidFraction    0.0833;   // = 1/12 for mono-size system
        
        pendularModel    Lambert;
        LambertCoeffs
        {
            useEquivalentSize    no;
        }
        
        pendularWallModel    LambertWall;
        LambertWallCoeffs
        {
            useEquivalentSize    no;
        }
    }
}


cloudFunctions
{}


// ************************************************************************* //
