/*--------------------------------*- C++ -*----------------------------------*\
| =========                 |                                                 |
| \\      /  F ield         | OpenFOAM: The Open Source CFD Toolbox           |
|  \\    /   O peration     | Version:  2.2.0                                 |
|   \\  /    A nd           | Web:      www.OpenFOAM.org                      |
|    \\/     M anipulation  |                                                 |
\*---------------------------------------------------------------------------*/
FoamFile
{
    version     2.0;
    format      ascii;
    class       dictionary;
    object      blockMeshDict;
}
// * * * * * * * * * * * * * * * * * * * * * * * * * * * * * * * * * * * * * //

convertToMeters 1e-3;

vertices
(
    (9.5 9.5 0)
    (-9.5 9.5 0)
    (-9.5 -9.5 0)
    (9.5 -9.5 0)
    (76 76 115)
    (-76 76 115)
    (-76 -76 115)
    (76 -76 115)
    (76 76 775)
    (-76 76 775)
    (-76 -76 775)
    (76 -76 775)
);

blocks
(
    hex (0 1 2 3 4 5 6 7) (10 10 7) simpleGrading (1 1 1)
    hex (4 5 6 7 8 9 10 11) (10 10 40) simpleGrading (1 1 1)
);

edges
(
);

boundary
(
    outlet
    {
        type wall;
        faces
        (
            (8 9 10 11)
        );
    }
    inlet
    {
        type wall;
        faces
        (
            (0 1 2 3)
        );
    }
    fixedWalls
    {
        type wall;
        faces
        (
            (0 4 7 3)
            (0 4 5 1)
            (1 5 6 2)
            (3 7 6 2)
            (4 8 11 7)
            (4 8 9 5)
            (5 9 10 6)
            (7 11 10 6)
        );
    }
);

mergePatchPairs
(
);

// ************************************************************************* //
