/*--------------------------------*- C++ -*----------------------------------*\
| =========                 |                                                 |
| \\      /  F ield         | OpenFOAM: The Open Source CFD Toolbox           |
|  \\    /   O peration     | Version:  2.2.x                                 |
|   \\  /    A nd           | Web:      www.OpenFOAM.org                      |
|    \\/     M anipulation  |                                                 |
\*---------------------------------------------------------------------------*/
FoamFile
{
    version     2.0;
    format      ascii;
    class       labelFieldField;
    location    "0.0002";
    object      collisionRecordsPairOrigProcOfOther;
}
// * * * * * * * * * * * * * * * * * * * * * * * * * * * * * * * * * * * * * //


200000
(
0()
0()
1(0)
1(0)
1(0)
1(0)
1(0)
1(0)
1(0)
2{0}
2{0}
1(0)
1(0)
1(0)
0()
1(0)
1(0)
1(0)
1(0)
0()
1(0)
1(0)
1(0)
2{0}
2{0}
1(0)
1(0)
1(0)
1(0)
1(0)
1(0)
2{0}
2{0}
0()
0()
1(0)
1(0)
1(0)
1(0)
1(0)
1(0)
1(0)
2{0}
2{0}
1(0)
1(0)
1(0)
0()
1(0)
1(0)
1(0)
1(0)
0()
1(0)
1(0)
1(0)
2{0}
2{0}
1(0)
1(0)
1(0)
1(0)
1(0)
1(0)
1(0)
2{0}
1(0)
1(0)
2{0}
1(0)
2{0}
2{0}
2{0}
2{0}
2{0}
3{0}
3{0}
2{0}
2{0}
2{0}
1(0)
2{0}
2{0}
2{0}
2{0}
1(0)
2{0}
2{0}
2{0}
3{0}
3{0}
2{0}
2{0}
2{0}
2{0}
2{0}
2{0}
2{0}
1(0)
1(0)
2{0}
3{0}
3{0}
2{0}
2{0}
2{0}
2{0}
2{0}
3{0}
3{0}
2{0}
2{0}
2{0}
1(0)
2{0}
2{0}
2{0}
2{0}
1(0)
2{0}
2{0}
2{0}
3{0}
3{0}
2{0}
2{0}
2{0}
2{0}
2{0}
2{0}
2{0}
1(0)
1(0)
1(0)
1(0)
3{0}
3{0}
1(0)
2{0}
2{0}
2{0}
3{0}
3{0}
2{0}
2{0}
2{0}
1(0)
2{0}
2{0}
2{0}
2{0}
1(0)
2{0}
2{0}
2{0}
3{0}
3{0}
2{0}
2{0}
2{0}
1(0)
2{0}
2{0}
2{0}
1(0)
1(0)
1(0)
2{0}
3{0}
3{0}
3{0}
3{0}
2{0}
2{0}
3{0}
3{0}
2{0}
2{0}
2{0}
1(0)
2{0}
2{0}
2{0}
2{0}
1(0)
2{0}
2{0}
2{0}
3{0}
3{0}
2{0}
2{0}
3{0}
3{0}
3{0}
3{0}
2{0}
1(0)
1(0)
1(0)
2{0}
2{0}
2{0}
4{0}
3{0}
1(0)
2{0}
3{0}
3{0}
2{0}
2{0}
2{0}
1(0)
2{0}
2{0}
2{0}
2{0}
1(0)
2{0}
2{0}
2{0}
3{0}
3{0}
2{0}
1(0)
3{0}
4{0}
2{0}
2{0}
2{0}
1(0)
1(0)
1(0)
2{0}
2{0}
2{0}
2{0}
1(0)
2{0}
2{0}
3{0}
3{0}
2{0}
2{0}
2{0}
1(0)
2{0}
2{0}
2{0}
2{0}
1(0)
2{0}
2{0}
2{0}
3{0}
3{0}
2{0}
2{0}
1(0)
2{0}
2{0}
2{0}
2{0}
1(0)
1(0)
1(0)
2{0}
2{0}
2{0}
2{0}
2{0}
2{0}
2{0}
3{0}
3{0}
2{0}
2{0}
2{0}
1(0)
2{0}
2{0}
2{0}
2{0}
1(0)
2{0}
2{0}
2{0}
3{0}
3{0}
2{0}
2{0}
2{0}
2{0}
2{0}
2{0}
2{0}
1(0)
2{0}
2{0}
3{0}
3{0}
3{0}
3{0}
3{0}
3{0}
3{0}
4{0}
4{0}
3{0}
3{0}
3{0}
2{0}
3{0}
3{0}
3{0}
3{0}
2{0}
3{0}
3{0}
3{0}
4{0}
4{0}
3{0}
3{0}
3{0}
3{0}
3{0}
3{0}
3{0}
2{0}
2{0}
2{0}
3{0}
3{0}
3{0}
3{0}
3{0}
3{0}
3{0}
4{0}
4{0}
3{0}
3{0}
3{0}
2{0}
3{0}
3{0}
3{0}
3{0}
2{0}
3{0}
3{0}
3{0}
4{0}
4{0}
3{0}
3{0}
3{0}
3{0}
3{0}
3{0}
3{0}
2{0}
1(0)
1(0)
2{0}
2{0}
2{0}
2{0}
2{0}
2{0}
2{0}
3{0}
3{0}
2{0}
2{0}
2{0}
1(0)
2{0}
2{0}
2{0}
2{0}
1(0)
2{0}
2{0}
2{0}
3{0}
3{0}
2{0}
2{0}
2{0}
2{0}
2{0}
2{0}
2{0}
1(0)
1(0)
1(0)
2{0}
2{0}
2{0}
2{0}
2{0}
2{0}
2{0}
3{0}
3{0}
2{0}
2{0}
2{0}
1(0)
2{0}
2{0}
2{0}
2{0}
1(0)
2{0}
2{0}
2{0}
3{0}
3{0}
2{0}
2{0}
2{0}
2{0}
2{0}
2{0}
2{0}
1(0)
1(0)
1(0)
2{0}
2{0}
2{0}
2{0}
2{0}
2{0}
2{0}
3{0}
3{0}
2{0}
2{0}
2{0}
1(0)
2{0}
2{0}
2{0}
2{0}
1(0)
2{0}
2{0}
2{0}
3{0}
3{0}
2{0}
2{0}
2{0}
2{0}
2{0}
2{0}
2{0}
1(0)
0()
0()
1(0)
1(0)
1(0)
1(0)
1(0)
1(0)
1(0)
2{0}
2{0}
1(0)
1(0)
1(0)
0()
1(0)
1(0)
2{0}
1(0)
0()
1(0)
1(0)
1(0)
2{0}
2{0}
1(0)
1(0)
1(0)
1(0)
1(0)
1(0)
1(0)
0()
1(0)
1(0)
2{0}
2{0}
2{0}
2{0}
2{0}
2{0}
2{0}
3{0}
3{0}
2{0}
2{0}
2{0}
1(0)
2{0}
3{0}
3{0}
0()
1(0)
2{0}
2{0}
2{0}
3{0}
3{0}
2{0}
2{0}
2{0}
2{0}
2{0}
2{0}
2{0}
1(0)
1(0)
1(0)
2{0}
2{0}
2{0}
2{0}
2{0}
2{0}
2{0}
3{0}
3{0}
2{0}
2{0}
2{0}
1(0)
3{0}
2{0}
3{0}
3{0}
2{0}
2{0}
2{0}
2{0}
3{0}
3{0}
2{0}
2{0}
2{0}
2{0}
2{0}
2{0}
2{0}
1(0)
1(0)
1(0)
2{0}
2{0}
2{0}
2{0}
2{0}
2{0}
2{0}
3{0}
3{0}
2{0}
2{0}
2{0}
2{0}
3{0}
3{0}
3{0}
3{0}
2{0}
2{0}
2{0}
2{0}
3{0}
3{0}
2{0}
2{0}
2{0}
2{0}
2{0}
2{0}
2{0}
1(0)
1(0)
1(0)
2{0}
2{0}
2{0}
2{0}
2{0}
2{0}
2{0}
3{0}
3{0}
2{0}
2{0}
2{0}
1(0)
3{0}
4{0}
4{0}
3{0}
1(0)
2{0}
2{0}
2{0}
3{0}
3{0}
2{0}
2{0}
2{0}
2{0}
2{0}
2{0}
2{0}
1(0)
0()
0()
1(0)
1(0)
1(0)
1(0)
1(0)
1(0)
1(0)
2{0}
2{0}
1(0)
1(0)
1(0)
1(0)
3{0}
1(0)
1(0)
3{0}
1(0)
1(0)
1(0)
1(0)
2{0}
2{0}
1(0)
1(0)
1(0)
1(0)
1(0)
1(0)
1(0)
0()
1(0)
1(0)
2{0}
2{0}
2{0}
2{0}
2{0}
2{0}
2{0}
3{0}
3{0}
2{0}
2{0}
2{0}
1(0)
3{0}
2{0}
2{0}
3{0}
1(0)
2{0}
2{0}
2{0}
3{0}
3{0}
2{0}
2{0}
2{0}
2{0}
2{0}
2{0}
2{0}
1(0)
1(0)
1(0)
2{0}
2{0}
2{0}
2{0}
2{0}
2{0}
2{0}
3{0}
3{0}
2{0}
2{0}
2{0}
1(0)
2{0}
2{0}
2{0}
2{0}
1(0)
2{0}
2{0}
2{0}
3{0}
3{0}
2{0}
2{0}
2{0}
2{0}
2{0}
2{0}
2{0}
1(0)
1(0)
1(0)
2{0}
2{0}
2{0}
2{0}
2{0}
2{0}
2{0}
3{0}
3{0}
2{0}
2{0}
2{0}
1(0)
2{0}
2{0}
2{0}
2{0}
1(0)
2{0}
2{0}
2{0}
3{0}
3{0}
2{0}
2{0}
2{0}
2{0}
2{0}
2{0}
2{0}
1(0)
2{0}
2{0}
3{0}
3{0}
3{0}
3{0}
3{0}
3{0}
3{0}
4{0}
4{0}
3{0}
3{0}
3{0}
2{0}
3{0}
3{0}
3{0}
3{0}
2{0}
3{0}
3{0}
3{0}
4{0}
4{0}
3{0}
3{0}
3{0}
3{0}
3{0}
3{0}
3{0}
2{0}
2{0}
2{0}
3{0}
3{0}
3{0}
3{0}
3{0}
3{0}
3{0}
4{0}
4{0}
3{0}
3{0}
3{0}
2{0}
3{0}
3{0}
3{0}
3{0}
2{0}
3{0}
3{0}
3{0}
4{0}
4{0}
3{0}
3{0}
3{0}
3{0}
3{0}
3{0}
3{0}
2{0}
1(0)
1(0)
2{0}
2{0}
2{0}
2{0}
2{0}
2{0}
2{0}
3{0}
3{0}
2{0}
2{0}
2{0}
1(0)
2{0}
2{0}
2{0}
2{0}
1(0)
2{0}
2{0}
2{0}
3{0}
3{0}
2{0}
2{0}
2{0}
2{0}
2{0}
2{0}
2{0}
1(0)
1(0)
1(0)
2{0}
2{0}
2{0}
2{0}
1(0)
2{0}
2{0}
3{0}
3{0}
2{0}
2{0}
2{0}
1(0)
2{0}
2{0}
2{0}
2{0}
1(0)
2{0}
2{0}
2{0}
3{0}
3{0}
2{0}
2{0}
1(0)
2{0}
2{0}
2{0}
2{0}
1(0)
1(0)
1(0)
2{0}
2{0}
2{0}
3{0}
3{0}
1(0)
2{0}
3{0}
3{0}
2{0}
2{0}
2{0}
1(0)
2{0}
2{0}
2{0}
2{0}
1(0)
2{0}
2{0}
2{0}
3{0}
3{0}
2{0}
1(0)
3{0}
3{0}
2{0}
2{0}
2{0}
1(0)
1(0)
1(0)
2{0}
2{0}
1(0)
3{0}
4{0}
2{0}
2{0}
3{0}
3{0}
2{0}
2{0}
2{0}
1(0)
2{0}
2{0}
2{0}
2{0}
1(0)
2{0}
2{0}
2{0}
3{0}
3{0}
2{0}
2{0}
4{0}
3{0}
1(0)
2{0}
2{0}
1(0)
1(0)
1(0)
2{0}
2{0}
3{0}
3{0}
2{0}
2{0}
2{0}
3{0}
3{0}
2{0}
2{0}
2{0}
1(0)
2{0}
2{0}
2{0}
2{0}
1(0)
2{0}
2{0}
2{0}
3{0}
3{0}
2{0}
2{0}
2{0}
3{0}
3{0}
2{0}
2{0}
1(0)
1(0)
1(0)
1(0)
3{0}
3{0}
3{0}
2{0}
2{0}
2{0}
3{0}
3{0}
2{0}
2{0}
2{0}
1(0)
2{0}
2{0}
2{0}
2{0}
1(0)
2{0}
2{0}
2{0}
3{0}
3{0}
2{0}
2{0}
2{0}
3{0}
3{0}
3{0}
1(0)
1(0)
1(0)
1(0)
2{0}
3{0}
1(0)
2{0}
2{0}
2{0}
2{0}
3{0}
3{0}
2{0}
2{0}
2{0}
1(0)
2{0}
2{0}
2{0}
2{0}
1(0)
2{0}
2{0}
2{0}
3{0}
3{0}
2{0}
2{0}
2{0}
2{0}
1(0)
3{0}
2{0}
1(0)
0()
0()
1(0)
2{0}
1(0)
1(0)
1(0)
1(0)
1(0)
2{0}
2{0}
1(0)
1(0)
1(0)
0()
1(0)
1(0)
1(0)
1(0)
0()
1(0)
1(0)
1(0)
2{0}
2{0}
1(0)
1(0)
1(0)
1(0)
1(0)
2{0}
1(0)
1(0)
1(0)
1(0)
2{0}
2{0}
2{0}
2{0}
2{0}
2{0}
2{0}
3{0}
3{0}
2{0}
2{0}
2{0}
1(0)
2{0}
2{0}
2{0}
2{0}
1(0)
2{0}
2{0}
2{0}
3{0}
3{0}
2{0}
2{0}
2{0}
2{0}
2{0}
2{0}
3{0}
2{0}
1(0)
1(0)
2{0}
2{0}
2{0}
2{0}
2{0}
2{0}
2{0}
3{0}
3{0}
2{0}
2{0}
2{0}
1(0)
2{0}
2{0}
2{0}
2{0}
1(0)
2{0}
2{0}
2{0}
3{0}
3{0}
2{0}
2{0}
2{0}
2{0}
2{0}
2{0}
2{0}
3{0}
2{0}
2{0}
3{0}
2{0}
3{0}
3{0}
3{0}
3{0}
3{0}
4{0}
4{0}
3{0}
3{0}
3{0}
2{0}
3{0}
3{0}
3{0}
3{0}
2{0}
3{0}
3{0}
3{0}
4{0}
4{0}
3{0}
3{0}
3{0}
3{0}
3{0}
3{0}
3{0}
2{0}
2{0}
3{0}
4{0}
3{0}
3{0}
3{0}
3{0}
3{0}
3{0}
4{0}
4{0}
3{0}
3{0}
3{0}
2{0}
3{0}
3{0}
3{0}
3{0}
2{0}
3{0}
3{0}
3{0}
4{0}
4{0}
3{0}
3{0}
3{0}
3{0}
3{0}
3{0}
3{0}
2{0}
2{0}
2{0}
2{0}
4{0}
4{0}
2{0}
3{0}
3{0}
3{0}
4{0}
4{0}
3{0}
3{0}
3{0}
2{0}
3{0}
3{0}
3{0}
3{0}
2{0}
3{0}
3{0}
3{0}
4{0}
4{0}
3{0}
3{0}
3{0}
2{0}
3{0}
3{0}
3{0}
2{0}
2{0}
2{0}
3{0}
4{0}
3{0}
4{0}
3{0}
3{0}
3{0}
4{0}
4{0}
3{0}
3{0}
3{0}
2{0}
3{0}
3{0}
3{0}
3{0}
2{0}
3{0}
3{0}
3{0}
4{0}
4{0}
3{0}
3{0}
3{0}
3{0}
4{0}
4{0}
3{0}
2{0}
2{0}
2{0}
3{0}
3{0}
3{0}
4{0}
4{0}
2{0}
3{0}
4{0}
4{0}
3{0}
3{0}
3{0}
2{0}
3{0}
3{0}
3{0}
3{0}
2{0}
3{0}
3{0}
3{0}
4{0}
4{0}
3{0}
2{0}
4{0}
4{0}
3{0}
3{0}
3{0}
2{0}
2{0}
2{0}
3{0}
3{0}
3{0}
3{0}
2{0}
3{0}
3{0}
4{0}
4{0}
3{0}
3{0}
3{0}
2{0}
3{0}
3{0}
3{0}
3{0}
2{0}
3{0}
3{0}
3{0}
4{0}
4{0}
3{0}
3{0}
2{0}
3{0}
3{0}
3{0}
3{0}
2{0}
2{0}
2{0}
3{0}
3{0}
3{0}
3{0}
3{0}
3{0}
3{0}
4{0}
4{0}
3{0}
3{0}
3{0}
2{0}
3{0}
3{0}
3{0}
3{0}
2{0}
3{0}
3{0}
3{0}
4{0}
4{0}
3{0}
3{0}
3{0}
3{0}
3{0}
3{0}
3{0}
2{0}
3{0}
3{0}
4{0}
4{0}
4{0}
4{0}
4{0}
4{0}
4{0}
5{0}
5{0}
4{0}
4{0}
4{0}
3{0}
4{0}
4{0}
4{0}
4{0}
3{0}
4{0}
4{0}
4{0}
5{0}
5{0}
4{0}
4{0}
4{0}
4{0}
4{0}
4{0}
4{0}
3{0}
3{0}
3{0}
4{0}
4{0}
4{0}
4{0}
4{0}
4{0}
4{0}
5{0}
5{0}
4{0}
4{0}
4{0}
3{0}
4{0}
4{0}
4{0}
4{0}
3{0}
4{0}
4{0}
4{0}
5{0}
5{0}
4{0}
4{0}
4{0}
4{0}
4{0}
4{0}
4{0}
3{0}
2{0}
2{0}
3{0}
3{0}
3{0}
3{0}
3{0}
3{0}
3{0}
4{0}
4{0}
3{0}
3{0}
3{0}
2{0}
3{0}
3{0}
3{0}
3{0}
2{0}
3{0}
3{0}
3{0}
4{0}
4{0}
3{0}
3{0}
3{0}
3{0}
3{0}
3{0}
3{0}
2{0}
2{0}
2{0}
3{0}
3{0}
3{0}
3{0}
3{0}
3{0}
3{0}
4{0}
4{0}
3{0}
3{0}
3{0}
2{0}
3{0}
3{0}
3{0}
3{0}
2{0}
3{0}
3{0}
3{0}
4{0}
4{0}
3{0}
3{0}
3{0}
3{0}
3{0}
3{0}
3{0}
2{0}
2{0}
2{0}
3{0}
3{0}
3{0}
3{0}
3{0}
3{0}
3{0}
4{0}
4{0}
3{0}
3{0}
3{0}
2{0}
3{0}
3{0}
3{0}
3{0}
2{0}
3{0}
3{0}
3{0}
4{0}
4{0}
3{0}
3{0}
3{0}
3{0}
3{0}
3{0}
3{0}
2{0}
1(0)
1(0)
2{0}
2{0}
2{0}
2{0}
2{0}
2{0}
2{0}
3{0}
3{0}
2{0}
2{0}
2{0}
1(0)
2{0}
2{0}
3{0}
2{0}
1(0)
2{0}
2{0}
2{0}
3{0}
3{0}
2{0}
2{0}
2{0}
2{0}
2{0}
2{0}
2{0}
1(0)
2{0}
2{0}
3{0}
3{0}
3{0}
3{0}
3{0}
3{0}
3{0}
4{0}
4{0}
3{0}
3{0}
3{0}
2{0}
3{0}
4{0}
3{0}
1(0)
2{0}
3{0}
3{0}
3{0}
4{0}
4{0}
3{0}
3{0}
3{0}
3{0}
3{0}
3{0}
3{0}
2{0}
2{0}
2{0}
3{0}
3{0}
3{0}
3{0}
3{0}
3{0}
3{0}
4{0}
4{0}
3{0}
3{0}
3{0}
2{0}
4{0}
3{0}
4{0}
3{0}
3{0}
3{0}
3{0}
3{0}
4{0}
4{0}
3{0}
3{0}
3{0}
3{0}
3{0}
3{0}
3{0}
2{0}
2{0}
2{0}
3{0}
3{0}
3{0}
3{0}
3{0}
3{0}
3{0}
4{0}
4{0}
3{0}
3{0}
3{0}
3{0}
3{0}
4{0}
4{0}
3{0}
3{0}
3{0}
3{0}
3{0}
4{0}
4{0}
3{0}
3{0}
3{0}
3{0}
3{0}
3{0}
3{0}
2{0}
2{0}
2{0}
3{0}
3{0}
3{0}
3{0}
3{0}
3{0}
3{0}
4{0}
4{0}
3{0}
3{0}
3{0}
2{0}
3{0}
4{0}
4{0}
3{0}
2{0}
3{0}
3{0}
3{0}
4{0}
4{0}
3{0}
3{0}
3{0}
3{0}
3{0}
3{0}
3{0}
2{0}
1(0)
1(0)
2{0}
2{0}
2{0}
2{0}
2{0}
2{0}
2{0}
3{0}
3{0}
2{0}
2{0}
2{0}
2{0}
4{0}
2{0}
2{0}
4{0}
2{0}
2{0}
2{0}
2{0}
3{0}
3{0}
2{0}
2{0}
2{0}
2{0}
2{0}
2{0}
2{0}
1(0)
2{0}
2{0}
3{0}
3{0}
3{0}
3{0}
3{0}
3{0}
3{0}
4{0}
4{0}
3{0}
3{0}
3{0}
2{0}
4{0}
3{0}
3{0}
4{0}
2{0}
3{0}
3{0}
3{0}
4{0}
4{0}
3{0}
3{0}
3{0}
3{0}
3{0}
3{0}
3{0}
2{0}
2{0}
2{0}
3{0}
3{0}
3{0}
3{0}
3{0}
3{0}
3{0}
4{0}
4{0}
3{0}
3{0}
3{0}
2{0}
3{0}
3{0}
3{0}
3{0}
2{0}
3{0}
3{0}
3{0}
4{0}
4{0}
3{0}
3{0}
3{0}
3{0}
3{0}
3{0}
3{0}
2{0}
2{0}
2{0}
3{0}
3{0}
3{0}
3{0}
3{0}
3{0}
3{0}
4{0}
4{0}
3{0}
3{0}
3{0}
2{0}
3{0}
3{0}
3{0}
3{0}
2{0}
3{0}
3{0}
3{0}
4{0}
4{0}
3{0}
3{0}
3{0}
3{0}
3{0}
3{0}
3{0}
2{0}
3{0}
3{0}
4{0}
4{0}
4{0}
4{0}
4{0}
4{0}
4{0}
5{0}
5{0}
4{0}
4{0}
4{0}
3{0}
4{0}
4{0}
4{0}
4{0}
3{0}
4{0}
4{0}
4{0}
5{0}
5{0}
4{0}
4{0}
4{0}
4{0}
4{0}
4{0}
4{0}
3{0}
3{0}
3{0}
4{0}
4{0}
4{0}
4{0}
4{0}
4{0}
4{0}
5{0}
5{0}
4{0}
4{0}
4{0}
3{0}
4{0}
4{0}
4{0}
4{0}
3{0}
4{0}
4{0}
4{0}
5{0}
5{0}
4{0}
4{0}
4{0}
4{0}
4{0}
4{0}
4{0}
3{0}
2{0}
2{0}
3{0}
3{0}
3{0}
3{0}
3{0}
3{0}
3{0}
4{0}
4{0}
3{0}
3{0}
3{0}
2{0}
3{0}
3{0}
3{0}
3{0}
2{0}
3{0}
3{0}
3{0}
4{0}
4{0}
3{0}
3{0}
3{0}
3{0}
3{0}
3{0}
3{0}
2{0}
2{0}
2{0}
3{0}
3{0}
3{0}
3{0}
2{0}
3{0}
3{0}
4{0}
4{0}
3{0}
3{0}
3{0}
2{0}
3{0}
3{0}
3{0}
3{0}
2{0}
3{0}
3{0}
3{0}
4{0}
4{0}
3{0}
3{0}
2{0}
3{0}
3{0}
3{0}
3{0}
2{0}
2{0}
2{0}
3{0}
3{0}
3{0}
3{0}
4{0}
2{0}
3{0}
4{0}
4{0}
3{0}
3{0}
3{0}
2{0}
3{0}
3{0}
3{0}
3{0}
2{0}
3{0}
3{0}
3{0}
4{0}
4{0}
3{0}
2{0}
4{0}
3{0}
3{0}
3{0}
3{0}
2{0}
2{0}
2{0}
3{0}
3{0}
2{0}
3{0}
4{0}
3{0}
3{0}
4{0}
4{0}
3{0}
3{0}
3{0}
2{0}
3{0}
3{0}
3{0}
3{0}
2{0}
3{0}
3{0}
3{0}
4{0}
4{0}
3{0}
3{0}
4{0}
3{0}
2{0}
3{0}
3{0}
2{0}
2{0}
2{0}
3{0}
3{0}
4{0}
4{0}
3{0}
3{0}
3{0}
4{0}
4{0}
3{0}
3{0}
3{0}
2{0}
3{0}
3{0}
3{0}
3{0}
2{0}
3{0}
3{0}
3{0}
4{0}
4{0}
3{0}
3{0}
3{0}
4{0}
4{0}
3{0}
3{0}
2{0}
2{0}
2{0}
2{0}
3{0}
4{0}
4{0}
3{0}
3{0}
3{0}
4{0}
4{0}
3{0}
3{0}
3{0}
2{0}
3{0}
3{0}
3{0}
3{0}
2{0}
3{0}
3{0}
3{0}
4{0}
4{0}
3{0}
3{0}
3{0}
4{0}
3{0}
4{0}
2{0}
2{0}
2{0}
2{0}
3{0}
4{0}
2{0}
3{0}
3{0}
3{0}
3{0}
4{0}
4{0}
3{0}
3{0}
3{0}
2{0}
3{0}
3{0}
3{0}
3{0}
2{0}
3{0}
3{0}
3{0}
4{0}
4{0}
3{0}
3{0}
3{0}
3{0}
2{0}
3{0}
3{0}
2{0}
1(0)
1(0)
2{0}
3{0}
2{0}
2{0}
2{0}
2{0}
2{0}
3{0}
3{0}
2{0}
2{0}
2{0}
1(0)
2{0}
2{0}
2{0}
2{0}
1(0)
2{0}
2{0}
2{0}
3{0}
3{0}
2{0}
2{0}
2{0}
2{0}
2{0}
3{0}
2{0}
2{0}
1(0)
1(0)
2{0}
2{0}
2{0}
2{0}
2{0}
2{0}
2{0}
3{0}
3{0}
2{0}
2{0}
2{0}
1(0)
2{0}
2{0}
2{0}
2{0}
1(0)
2{0}
2{0}
2{0}
3{0}
3{0}
2{0}
2{0}
2{0}
2{0}
2{0}
2{0}
3{0}
2{0}
1(0)
1(0)
2{0}
2{0}
2{0}
2{0}
2{0}
2{0}
2{0}
3{0}
3{0}
2{0}
2{0}
2{0}
1(0)
2{0}
2{0}
2{0}
2{0}
1(0)
2{0}
2{0}
2{0}
3{0}
3{0}
2{0}
2{0}
2{0}
2{0}
2{0}
2{0}
2{0}
3{0}
2{0}
2{0}
3{0}
3{0}
3{0}
3{0}
3{0}
3{0}
3{0}
4{0}
4{0}
3{0}
3{0}
3{0}
2{0}
3{0}
3{0}
3{0}
3{0}
2{0}
3{0}
3{0}
3{0}
4{0}
4{0}
3{0}
3{0}
3{0}
3{0}
3{0}
3{0}
3{0}
2{0}
2{0}
2{0}
3{0}
2{0}
3{0}
3{0}
3{0}
3{0}
3{0}
4{0}
4{0}
3{0}
3{0}
3{0}
2{0}
3{0}
3{0}
3{0}
3{0}
2{0}
3{0}
3{0}
3{0}
4{0}
4{0}
3{0}
3{0}
3{0}
3{0}
3{0}
3{0}
3{0}
2{0}
2{0}
2{0}
3{0}
3{0}
3{0}
3{0}
3{0}
3{0}
3{0}
4{0}
4{0}
3{0}
3{0}
3{0}
2{0}
3{0}
3{0}
3{0}
3{0}
2{0}
3{0}
3{0}
3{0}
4{0}
4{0}
3{0}
3{0}
3{0}
3{0}
3{0}
3{0}
3{0}
2{0}
2{0}
2{0}
3{0}
3{0}
1(0)
3{0}
4{0}
3{0}
3{0}
4{0}
4{0}
3{0}
3{0}
3{0}
2{0}
3{0}
3{0}
3{0}
3{0}
2{0}
3{0}
3{0}
3{0}
4{0}
4{0}
3{0}
3{0}
4{0}
2{0}
3{0}
3{0}
3{0}
2{0}
2{0}
2{0}
3{0}
3{0}
3{0}
4{0}
3{0}
2{0}
3{0}
4{0}
4{0}
3{0}
3{0}
3{0}
2{0}
3{0}
3{0}
3{0}
3{0}
2{0}
3{0}
3{0}
3{0}
4{0}
4{0}
3{0}
2{0}
3{0}
4{0}
3{0}
3{0}
3{0}
2{0}
2{0}
2{0}
3{0}
3{0}
3{0}
3{0}
2{0}
3{0}
3{0}
4{0}
4{0}
3{0}
3{0}
3{0}
2{0}
3{0}
3{0}
3{0}
3{0}
2{0}
3{0}
3{0}
3{0}
4{0}
4{0}
3{0}
3{0}
2{0}
3{0}
3{0}
3{0}
3{0}
2{0}
2{0}
2{0}
3{0}
3{0}
3{0}
3{0}
3{0}
3{0}
3{0}
4{0}
4{0}
3{0}
3{0}
3{0}
2{0}
3{0}
3{0}
3{0}
3{0}
2{0}
3{0}
3{0}
3{0}
4{0}
4{0}
3{0}
3{0}
3{0}
3{0}
3{0}
3{0}
3{0}
2{0}
3{0}
3{0}
4{0}
4{0}
4{0}
4{0}
4{0}
4{0}
4{0}
5{0}
5{0}
4{0}
4{0}
4{0}
3{0}
4{0}
4{0}
4{0}
4{0}
3{0}
4{0}
4{0}
4{0}
5{0}
5{0}
4{0}
4{0}
4{0}
4{0}
4{0}
4{0}
4{0}
3{0}
3{0}
3{0}
4{0}
4{0}
4{0}
4{0}
4{0}
4{0}
4{0}
5{0}
5{0}
4{0}
4{0}
4{0}
3{0}
4{0}
4{0}
4{0}
4{0}
3{0}
4{0}
4{0}
4{0}
5{0}
5{0}
4{0}
4{0}
4{0}
4{0}
4{0}
4{0}
4{0}
3{0}
2{0}
2{0}
3{0}
3{0}
3{0}
3{0}
3{0}
3{0}
3{0}
4{0}
4{0}
3{0}
3{0}
3{0}
2{0}
3{0}
3{0}
3{0}
3{0}
2{0}
3{0}
3{0}
3{0}
4{0}
4{0}
3{0}
3{0}
3{0}
3{0}
3{0}
3{0}
3{0}
2{0}
2{0}
2{0}
3{0}
3{0}
3{0}
3{0}
3{0}
3{0}
3{0}
4{0}
4{0}
3{0}
3{0}
3{0}
2{0}
3{0}
3{0}
3{0}
3{0}
2{0}
3{0}
3{0}
3{0}
4{0}
4{0}
3{0}
3{0}
3{0}
3{0}
3{0}
3{0}
3{0}
2{0}
2{0}
2{0}
3{0}
3{0}
3{0}
3{0}
3{0}
3{0}
3{0}
4{0}
4{0}
3{0}
3{0}
3{0}
2{0}
3{0}
3{0}
3{0}
3{0}
2{0}
3{0}
3{0}
3{0}
4{0}
4{0}
3{0}
3{0}
3{0}
3{0}
3{0}
3{0}
3{0}
2{0}
1(0)
1(0)
2{0}
2{0}
2{0}
2{0}
2{0}
2{0}
2{0}
3{0}
3{0}
2{0}
2{0}
2{0}
1(0)
2{0}
2{0}
3{0}
2{0}
1(0)
2{0}
2{0}
2{0}
3{0}
3{0}
2{0}
2{0}
2{0}
2{0}
2{0}
2{0}
2{0}
1(0)
2{0}
2{0}
3{0}
3{0}
3{0}
3{0}
3{0}
3{0}
3{0}
4{0}
4{0}
3{0}
3{0}
3{0}
2{0}
3{0}
4{0}
4{0}
1(0)
2{0}
3{0}
3{0}
3{0}
4{0}
4{0}
3{0}
3{0}
3{0}
3{0}
3{0}
3{0}
3{0}
2{0}
2{0}
2{0}
3{0}
3{0}
3{0}
3{0}
3{0}
3{0}
3{0}
4{0}
4{0}
3{0}
3{0}
3{0}
2{0}
4{0}
3{0}
3{0}
4{0}
3{0}
3{0}
3{0}
3{0}
4{0}
4{0}
3{0}
3{0}
3{0}
3{0}
3{0}
3{0}
3{0}
2{0}
2{0}
2{0}
3{0}
3{0}
3{0}
3{0}
3{0}
3{0}
3{0}
4{0}
4{0}
3{0}
3{0}
3{0}
3{0}
4{0}
3{0}
3{0}
4{0}
3{0}
3{0}
3{0}
3{0}
4{0}
4{0}
3{0}
3{0}
3{0}
3{0}
3{0}
3{0}
3{0}
2{0}
2{0}
2{0}
3{0}
3{0}
3{0}
3{0}
3{0}
3{0}
3{0}
4{0}
4{0}
3{0}
3{0}
3{0}
2{0}
0()
4{0}
4{0}
0()
2{0}
3{0}
3{0}
3{0}
4{0}
4{0}
3{0}
3{0}
3{0}
3{0}
3{0}
3{0}
3{0}
2{0}
1(0)
1(0)
2{0}
2{0}
2{0}
2{0}
2{0}
2{0}
2{0}
3{0}
3{0}
2{0}
2{0}
2{0}
1(0)
2{0}
3{0}
3{0}
2{0}
1(0)
2{0}
2{0}
2{0}
3{0}
3{0}
2{0}
2{0}
2{0}
2{0}
2{0}
2{0}
2{0}
1(0)
2{0}
2{0}
3{0}
3{0}
3{0}
3{0}
3{0}
3{0}
3{0}
4{0}
4{0}
3{0}
3{0}
3{0}
2{0}
3{0}
3{0}
3{0}
3{0}
2{0}
3{0}
2{0}
3{0}
4{0}
4{0}
3{0}
3{0}
3{0}
3{0}
3{0}
3{0}
3{0}
2{0}
2{0}
2{0}
3{0}
3{0}
3{0}
3{0}
3{0}
3{0}
3{0}
4{0}
4{0}
3{0}
3{0}
3{0}
2{0}
3{0}
3{0}
3{0}
3{0}
2{0}
2{0}
4{0}
4{0}
4{0}
4{0}
3{0}
3{0}
3{0}
3{0}
3{0}
3{0}
3{0}
2{0}
2{0}
2{0}
3{0}
3{0}
3{0}
3{0}
3{0}
3{0}
3{0}
4{0}
4{0}
3{0}
3{0}
3{0}
2{0}
3{0}
3{0}
3{0}
3{0}
2{0}
3{0}
4{0}
3{0}
4{0}
4{0}
3{0}
3{0}
3{0}
3{0}
3{0}
3{0}
3{0}
2{0}
3{0}
3{0}
4{0}
4{0}
4{0}
4{0}
4{0}
4{0}
4{0}
5{0}
5{0}
4{0}
4{0}
4{0}
3{0}
4{0}
4{0}
4{0}
4{0}
3{0}
4{0}
4{0}
4{0}
5{0}
5{0}
4{0}
4{0}
4{0}
4{0}
4{0}
4{0}
4{0}
3{0}
3{0}
3{0}
4{0}
4{0}
4{0}
4{0}
4{0}
4{0}
4{0}
5{0}
5{0}
4{0}
4{0}
4{0}
3{0}
4{0}
4{0}
4{0}
4{0}
3{0}
4{0}
4{0}
4{0}
5{0}
5{0}
4{0}
4{0}
4{0}
4{0}
4{0}
4{0}
4{0}
3{0}
2{0}
2{0}
3{0}
3{0}
3{0}
3{0}
3{0}
3{0}
3{0}
4{0}
4{0}
3{0}
3{0}
3{0}
2{0}
3{0}
3{0}
3{0}
3{0}
2{0}
3{0}
3{0}
3{0}
4{0}
4{0}
3{0}
3{0}
3{0}
3{0}
3{0}
3{0}
3{0}
2{0}
2{0}
2{0}
3{0}
3{0}
3{0}
3{0}
2{0}
3{0}
3{0}
4{0}
4{0}
3{0}
3{0}
3{0}
2{0}
3{0}
3{0}
3{0}
3{0}
2{0}
3{0}
3{0}
3{0}
4{0}
4{0}
3{0}
3{0}
2{0}
3{0}
3{0}
3{0}
3{0}
2{0}
2{0}
2{0}
3{0}
3{0}
3{0}
4{0}
3{0}
2{0}
3{0}
4{0}
4{0}
3{0}
3{0}
3{0}
2{0}
3{0}
3{0}
3{0}
3{0}
2{0}
3{0}
3{0}
3{0}
4{0}
4{0}
3{0}
2{0}
3{0}
4{0}
3{0}
3{0}
3{0}
2{0}
2{0}
2{0}
3{0}
3{0}
3{0}
2{0}
4{0}
3{0}
3{0}
4{0}
4{0}
3{0}
3{0}
3{0}
2{0}
3{0}
3{0}
3{0}
3{0}
2{0}
3{0}
3{0}
3{0}
4{0}
4{0}
3{0}
3{0}
4{0}
2{0}
3{0}
3{0}
3{0}
2{0}
2{0}
2{0}
3{0}
3{0}
3{0}
3{0}
3{0}
3{0}
3{0}
4{0}
4{0}
3{0}
3{0}
3{0}
2{0}
3{0}
3{0}
3{0}
3{0}
2{0}
3{0}
3{0}
3{0}
4{0}
4{0}
3{0}
3{0}
3{0}
3{0}
3{0}
4{0}
3{0}
2{0}
2{0}
2{0}
3{0}
2{0}
3{0}
3{0}
3{0}
3{0}
3{0}
4{0}
4{0}
3{0}
3{0}
3{0}
2{0}
3{0}
3{0}
3{0}
3{0}
2{0}
3{0}
3{0}
3{0}
4{0}
4{0}
3{0}
3{0}
3{0}
3{0}
2{0}
4{0}
3{0}
2{0}
2{0}
2{0}
3{0}
3{0}
3{0}
3{0}
3{0}
3{0}
3{0}
4{0}
4{0}
3{0}
3{0}
3{0}
2{0}
3{0}
3{0}
3{0}
3{0}
2{0}
3{0}
3{0}
3{0}
4{0}
4{0}
3{0}
3{0}
3{0}
3{0}
3{0}
1(0)
3{0}
2{0}
1(0)
1(0)
2{0}
2{0}
2{0}
2{0}
2{0}
2{0}
2{0}
3{0}
3{0}
2{0}
2{0}
2{0}
1(0)
2{0}
2{0}
2{0}
2{0}
1(0)
2{0}
2{0}
2{0}
3{0}
3{0}
2{0}
2{0}
2{0}
2{0}
2{0}
2{0}
2{0}
2{0}
0()
0()
1(0)
1(0)
1(0)
1(0)
1(0)
1(0)
1(0)
2{0}
2{0}
1(0)
1(0)
1(0)
0()
1(0)
1(0)
1(0)
1(0)
0()
1(0)
1(0)
1(0)
2{0}
2{0}
1(0)
1(0)
1(0)
1(0)
1(0)
1(0)
2{0}
3{0}
0()
0()
1(0)
1(0)
1(0)
1(0)
1(0)
1(0)
1(0)
2{0}
2{0}
1(0)
1(0)
1(0)
0()
1(0)
1(0)
1(0)
1(0)
0()
1(0)
1(0)
1(0)
2{0}
2{0}
1(0)
1(0)
1(0)
1(0)
1(0)
1(0)
1(0)
2{0}
1(0)
1(0)
2{0}
2{0}
2{0}
2{0}
2{0}
2{0}
2{0}
3{0}
3{0}
2{0}
2{0}
2{0}
1(0)
2{0}
2{0}
2{0}
2{0}
1(0)
2{0}
2{0}
2{0}
3{0}
3{0}
2{0}
2{0}
2{0}
2{0}
2{0}
2{0}
2{0}
1(0)
1(0)
1(0)
2{0}
2{0}
2{0}
2{0}
2{0}
2{0}
2{0}
3{0}
3{0}
2{0}
2{0}
2{0}
1(0)
2{0}
2{0}
2{0}
2{0}
1(0)
2{0}
2{0}
2{0}
3{0}
3{0}
2{0}
2{0}
2{0}
2{0}
2{0}
2{0}
2{0}
1(0)
1(0)
1(0)
2{0}
2{0}
2{0}
2{0}
2{0}
2{0}
2{0}
3{0}
3{0}
2{0}
2{0}
2{0}
1(0)
2{0}
2{0}
2{0}
2{0}
1(0)
2{0}
2{0}
2{0}
3{0}
3{0}
2{0}
2{0}
2{0}
2{0}
2{0}
2{0}
2{0}
1(0)
1(0)
1(0)
2{0}
2{0}
2{0}
3{0}
3{0}
2{0}
2{0}
3{0}
3{0}
2{0}
2{0}
2{0}
1(0)
2{0}
2{0}
2{0}
2{0}
1(0)
2{0}
2{0}
2{0}
3{0}
3{0}
2{0}
2{0}
3{0}
2{0}
2{0}
2{0}
2{0}
1(0)
1(0)
1(0)
2{0}
2{0}
2{0}
3{0}
2{0}
2{0}
2{0}
3{0}
3{0}
2{0}
2{0}
2{0}
1(0)
2{0}
2{0}
2{0}
2{0}
1(0)
2{0}
2{0}
2{0}
3{0}
3{0}
2{0}
2{0}
2{0}
3{0}
2{0}
2{0}
2{0}
1(0)
1(0)
1(0)
2{0}
2{0}
2{0}
2{0}
2{0}
2{0}
2{0}
3{0}
3{0}
2{0}
2{0}
2{0}
1(0)
2{0}
2{0}
2{0}
2{0}
1(0)
2{0}
2{0}
2{0}
3{0}
3{0}
2{0}
2{0}
2{0}
2{0}
2{0}
2{0}
2{0}
1(0)
1(0)
1(0)
2{0}
2{0}
2{0}
2{0}
2{0}
2{0}
2{0}
3{0}
3{0}
2{0}
2{0}
2{0}
1(0)
2{0}
2{0}
2{0}
2{0}
1(0)
2{0}
2{0}
2{0}
3{0}
3{0}
2{0}
2{0}
2{0}
2{0}
2{0}
2{0}
2{0}
1(0)
2{0}
2{0}
3{0}
3{0}
3{0}
3{0}
3{0}
3{0}
3{0}
4{0}
4{0}
3{0}
3{0}
3{0}
2{0}
3{0}
3{0}
3{0}
3{0}
2{0}
3{0}
3{0}
3{0}
4{0}
4{0}
3{0}
3{0}
3{0}
3{0}
3{0}
3{0}
3{0}
2{0}
2{0}
2{0}
3{0}
3{0}
3{0}
3{0}
3{0}
3{0}
3{0}
4{0}
4{0}
3{0}
3{0}
3{0}
2{0}
3{0}
3{0}
3{0}
3{0}
2{0}
3{0}
3{0}
4{0}
4{0}
4{0}
3{0}
3{0}
3{0}
3{0}
3{0}
3{0}
3{0}
2{0}
1(0)
1(0)
2{0}
2{0}
2{0}
2{0}
2{0}
2{0}
2{0}
3{0}
3{0}
2{0}
2{0}
2{0}
1(0)
2{0}
2{0}
2{0}
2{0}
1(0)
2{0}
2{0}
2{0}
4{0}
3{0}
2{0}
2{0}
2{0}
2{0}
2{0}
2{0}
2{0}
1(0)
1(0)
1(0)
2{0}
2{0}
2{0}
2{0}
2{0}
2{0}
2{0}
3{0}
3{0}
2{0}
2{0}
2{0}
1(0)
2{0}
2{0}
2{0}
2{0}
1(0)
2{0}
2{0}
2{0}
3{0}
3{0}
2{0}
2{0}
2{0}
2{0}
2{0}
2{0}
2{0}
1(0)
1(0)
1(0)
2{0}
2{0}
2{0}
2{0}
2{0}
2{0}
2{0}
3{0}
3{0}
2{0}
2{0}
2{0}
1(0)
2{0}
2{0}
2{0}
2{0}
1(0)
2{0}
3{0}
2{0}
3{0}
3{0}
2{0}
2{0}
2{0}
2{0}
2{0}
2{0}
2{0}
1(0)
0()
0()
1(0)
1(0)
1(0)
1(0)
1(0)
1(0)
1(0)
2{0}
2{0}
1(0)
1(0)
1(0)
0()
1(0)
1(0)
1(0)
1(0)
0()
1(0)
1(0)
1(0)
2{0}
2{0}
1(0)
1(0)
1(0)
1(0)
1(0)
1(0)
1(0)
0()
1(0)
1(0)
2{0}
2{0}
2{0}
2{0}
2{0}
2{0}
2{0}
3{0}
3{0}
2{0}
2{0}
2{0}
1(0)
2{0}
2{0}
3{0}
2{0}
1(0)
2{0}
2{0}
2{0}
3{0}
3{0}
2{0}
2{0}
2{0}
2{0}
2{0}
2{0}
2{0}
1(0)
1(0)
1(0)
2{0}
2{0}
2{0}
2{0}
2{0}
2{0}
2{0}
3{0}
3{0}
2{0}
2{0}
2{0}
1(0)
2{0}
2{0}
2{0}
3{0}
1(0)
2{0}
2{0}
2{0}
3{0}
3{0}
2{0}
2{0}
2{0}
2{0}
2{0}
2{0}
2{0}
1(0)
1(0)
1(0)
2{0}
2{0}
2{0}
2{0}
2{0}
2{0}
2{0}
3{0}
3{0}
2{0}
2{0}
2{0}
1(0)
3{0}
2{0}
2{0}
3{0}
1(0)
2{0}
2{0}
2{0}
3{0}
3{0}
2{0}
2{0}
2{0}
2{0}
2{0}
2{0}
2{0}
1(0)
1(0)
1(0)
2{0}
2{0}
2{0}
2{0}
2{0}
2{0}
2{0}
3{0}
3{0}
2{0}
2{0}
2{0}
1(0)
2{0}
3{0}
3{0}
2{0}
1(0)
2{0}
2{0}
2{0}
3{0}
3{0}
2{0}
2{0}
2{0}
2{0}
2{0}
2{0}
2{0}
1(0)
0()
0()
1(0)
1(0)
1(0)
1(0)
1(0)
1(0)
1(0)
2{0}
2{0}
1(0)
1(0)
1(0)
0()
1(0)
1(0)
1(0)
1(0)
0()
1(0)
2{0}
1(0)
2{0}
2{0}
1(0)
1(0)
1(0)
1(0)
1(0)
1(0)
1(0)
0()
1(0)
1(0)
2{0}
2{0}
2{0}
2{0}
2{0}
2{0}
2{0}
3{0}
3{0}
2{0}
2{0}
2{0}
1(0)
2{0}
2{0}
2{0}
2{0}
1(0)
0()
4{0}
3{0}
3{0}
3{0}
2{0}
2{0}
2{0}
2{0}
2{0}
2{0}
2{0}
1(0)
1(0)
1(0)
2{0}
2{0}
2{0}
2{0}
2{0}
2{0}
2{0}
3{0}
3{0}
2{0}
2{0}
3{0}
1(0)
2{0}
2{0}
2{0}
2{0}
2{0}
4{0}
3{0}
2{0}
3{0}
3{0}
2{0}
2{0}
2{0}
2{0}
2{0}
2{0}
2{0}
1(0)
1(0)
1(0)
2{0}
2{0}
2{0}
2{0}
2{0}
2{0}
2{0}
3{0}
4{0}
2{0}
2{0}
2{0}
1(0)
2{0}
2{0}
2{0}
2{0}
1(0)
3{0}
2{0}
2{0}
4{0}
3{0}
2{0}
2{0}
2{0}
2{0}
2{0}
2{0}
2{0}
1(0)
2{0}
2{0}
3{0}
3{0}
3{0}
3{0}
3{0}
3{0}
3{0}
4{0}
4{0}
4{0}
3{0}
3{0}
2{0}
3{0}
3{0}
3{0}
3{0}
2{0}
3{0}
3{0}
4{0}
4{0}
4{0}
3{0}
3{0}
3{0}
3{0}
3{0}
3{0}
3{0}
2{0}
2{0}
2{0}
3{0}
3{0}
3{0}
3{0}
3{0}
3{0}
3{0}
4{0}
4{0}
3{0}
3{0}
3{0}
2{0}
3{0}
3{0}
3{0}
3{0}
2{0}
3{0}
3{0}
3{0}
4{0}
4{0}
3{0}
3{0}
3{0}
3{0}
3{0}
3{0}
3{0}
2{0}
1(0)
1(0)
2{0}
2{0}
2{0}
2{0}
2{0}
2{0}
2{0}
3{0}
3{0}
2{0}
2{0}
2{0}
1(0)
2{0}
2{0}
2{0}
2{0}
1(0)
2{0}
2{0}
2{0}
3{0}
3{0}
2{0}
2{0}
2{0}
2{0}
2{0}
2{0}
2{0}
1(0)
1(0)
1(0)
2{0}
2{0}
2{0}
2{0}
2{0}
2{0}
2{0}
3{0}
3{0}
2{0}
2{0}
2{0}
1(0)
2{0}
2{0}
2{0}
2{0}
1(0)
2{0}
2{0}
2{0}
3{0}
3{0}
2{0}
2{0}
2{0}
2{0}
2{0}
2{0}
2{0}
1(0)
1(0)
1(0)
2{0}
2{0}
2{0}
3{0}
2{0}
2{0}
2{0}
3{0}
3{0}
2{0}
2{0}
2{0}
1(0)
2{0}
2{0}
2{0}
2{0}
1(0)
2{0}
2{0}
2{0}
3{0}
3{0}
2{0}
2{0}
2{0}
4{0}
2{0}
2{0}
2{0}
1(0)
1(0)
1(0)
2{0}
2{0}
2{0}
2{0}
3{0}
2{0}
2{0}
3{0}
3{0}
2{0}
2{0}
2{0}
1(0)
2{0}
2{0}
2{0}
2{0}
1(0)
2{0}
2{0}
2{0}
3{0}
3{0}
2{0}
2{0}
4{0}
2{0}
2{0}
2{0}
2{0}
1(0)
1(0)
1(0)
2{0}
2{0}
2{0}
2{0}
2{0}
2{0}
2{0}
3{0}
3{0}
2{0}
2{0}
2{0}
1(0)
2{0}
2{0}
2{0}
2{0}
1(0)
2{0}
2{0}
2{0}
3{0}
3{0}
2{0}
2{0}
2{0}
2{0}
2{0}
2{0}
2{0}
1(0)
1(0)
1(0)
2{0}
2{0}
2{0}
2{0}
2{0}
2{0}
2{0}
3{0}
3{0}
2{0}
2{0}
2{0}
1(0)
2{0}
2{0}
2{0}
2{0}
1(0)
2{0}
2{0}
2{0}
3{0}
3{0}
2{0}
2{0}
2{0}
2{0}
2{0}
3{0}
2{0}
1(0)
1(0)
1(0)
2{0}
2{0}
2{0}
2{0}
2{0}
2{0}
2{0}
3{0}
3{0}
2{0}
2{0}
2{0}
1(0)
2{0}
2{0}
2{0}
2{0}
1(0)
2{0}
2{0}
2{0}
3{0}
3{0}
2{0}
2{0}
2{0}
2{0}
2{0}
2{0}
2{0}
1(0)
0()
0()
1(0)
1(0)
1(0)
1(0)
1(0)
1(0)
1(0)
2{0}
2{0}
1(0)
1(0)
1(0)
0()
1(0)
1(0)
1(0)
1(0)
0()
1(0)
1(0)
1(0)
2{0}
2{0}
1(0)
1(0)
1(0)
1(0)
1(0)
1(0)
1(0)
1(0)
0()
0()
1(0)
1(0)
1(0)
1(0)
1(0)
1(0)
1(0)
2{0}
2{0}
1(0)
1(0)
1(0)
0()
1(0)
1(0)
1(0)
1(0)
0()
1(0)
1(0)
1(0)
2{0}
2{0}
1(0)
1(0)
1(0)
1(0)
1(0)
1(0)
1(0)
1(0)
0()
0()
1(0)
1(0)
1(0)
1(0)
1(0)
1(0)
1(0)
2{0}
2{0}
1(0)
1(0)
1(0)
0()
1(0)
1(0)
1(0)
1(0)
0()
1(0)
1(0)
1(0)
2{0}
2{0}
1(0)
1(0)
1(0)
1(0)
1(0)
1(0)
1(0)
0()
1(0)
1(0)
2{0}
2{0}
2{0}
2{0}
2{0}
2{0}
2{0}
3{0}
3{0}
2{0}
2{0}
2{0}
1(0)
2{0}
2{0}
2{0}
2{0}
1(0)
2{0}
2{0}
2{0}
3{0}
3{0}
2{0}
2{0}
2{0}
2{0}
2{0}
2{0}
2{0}
1(0)
1(0)
1(0)
2{0}
2{0}
2{0}
2{0}
2{0}
2{0}
2{0}
3{0}
3{0}
2{0}
2{0}
2{0}
1(0)
2{0}
2{0}
2{0}
2{0}
1(0)
2{0}
2{0}
2{0}
3{0}
3{0}
2{0}
2{0}
2{0}
2{0}
2{0}
2{0}
2{0}
1(0)
1(0)
1(0)
2{0}
2{0}
2{0}
2{0}
2{0}
2{0}
2{0}
3{0}
3{0}
2{0}
2{0}
2{0}
1(0)
2{0}
2{0}
2{0}
2{0}
1(0)
2{0}
2{0}
2{0}
3{0}
3{0}
2{0}
2{0}
2{0}
2{0}
2{0}
2{0}
2{0}
1(0)
1(0)
1(0)
2{0}
2{0}
2{0}
2{0}
2{0}
2{0}
2{0}
3{0}
3{0}
2{0}
2{0}
2{0}
1(0)
2{0}
2{0}
2{0}
2{0}
1(0)
2{0}
2{0}
2{0}
3{0}
3{0}
2{0}
2{0}
2{0}
2{0}
2{0}
2{0}
2{0}
1(0)
1(0)
1(0)
2{0}
2{0}
2{0}
2{0}
2{0}
2{0}
2{0}
3{0}
3{0}
2{0}
2{0}
2{0}
1(0)
2{0}
2{0}
2{0}
2{0}
1(0)
2{0}
2{0}
2{0}
3{0}
3{0}
2{0}
2{0}
2{0}
2{0}
2{0}
2{0}
2{0}
1(0)
1(0)
1(0)
2{0}
2{0}
2{0}
2{0}
2{0}
2{0}
2{0}
3{0}
3{0}
2{0}
2{0}
2{0}
1(0)
2{0}
2{0}
2{0}
2{0}
1(0)
2{0}
2{0}
2{0}
3{0}
3{0}
2{0}
2{0}
2{0}
2{0}
2{0}
2{0}
2{0}
1(0)
1(0)
1(0)
2{0}
2{0}
2{0}
2{0}
2{0}
3{0}
3{0}
3{0}
3{0}
2{0}
2{0}
2{0}
1(0)
2{0}
2{0}
2{0}
2{0}
1(0)
2{0}
2{0}
2{0}
3{0}
3{0}
3{0}
3{0}
2{0}
2{0}
2{0}
2{0}
2{0}
1(0)
2{0}
2{0}
3{0}
3{0}
3{0}
3{0}
3{0}
3{0}
3{0}
4{0}
4{0}
3{0}
3{0}
3{0}
2{0}
3{0}
3{0}
3{0}
3{0}
2{0}
3{0}
3{0}
3{0}
4{0}
5{0}
3{0}
3{0}
3{0}
3{0}
3{0}
3{0}
3{0}
2{0}
2{0}
2{0}
3{0}
3{0}
3{0}
3{0}
3{0}
3{0}
3{0}
5{0}
4{0}
3{0}
3{0}
3{0}
2{0}
3{0}
3{0}
3{0}
3{0}
2{0}
3{0}
4{0}
4{0}
2{0}
5{0}
3{0}
3{0}
3{0}
3{0}
3{0}
3{0}
3{0}
2{0}
1(0)
1(0)
2{0}
2{0}
2{0}
2{0}
2{0}
2{0}
2{0}
3{0}
4{0}
2{0}
2{0}
2{0}
1(0)
2{0}
2{0}
2{0}
2{0}
1(0)
3{0}
2{0}
3{0}
4{0}
3{0}
2{0}
2{0}
2{0}
2{0}
2{0}
2{0}
2{0}
1(0)
1(0)
1(0)
2{0}
2{0}
2{0}
2{0}
2{0}
2{0}
2{0}
3{0}
3{0}
2{0}
2{0}
2{0}
1(0)
2{0}
2{0}
2{0}
2{0}
2{0}
3{0}
3{0}
2{0}
4{0}
3{0}
2{0}
2{0}
2{0}
2{0}
2{0}
2{0}
2{0}
1(0)
1(0)
1(0)
2{0}
2{0}
2{0}
2{0}
2{0}
2{0}
2{0}
3{0}
3{0}
2{0}
2{0}
2{0}
1(0)
2{0}
2{0}
2{0}
2{0}
1(0)
1(0)
4{0}
3{0}
3{0}
3{0}
2{0}
2{0}
2{0}
2{0}
2{0}
2{0}
2{0}
1(0)
0()
0()
1(0)
1(0)
1(0)
1(0)
1(0)
1(0)
1(0)
2{0}
2{0}
1(0)
1(0)
1(0)
0()
1(0)
1(0)
1(0)
1(0)
0()
1(0)
2{0}
1(0)
2{0}
2{0}
1(0)
1(0)
1(0)
1(0)
1(0)
1(0)
1(0)
0()
1(0)
1(0)
2{0}
2{0}
2{0}
2{0}
2{0}
2{0}
2{0}
3{0}
3{0}
2{0}
2{0}
2{0}
1(0)
2{0}
2{0}
2{0}
2{0}
1(0)
2{0}
2{0}
2{0}
3{0}
3{0}
2{0}
2{0}
2{0}
2{0}
2{0}
2{0}
2{0}
1(0)
1(0)
1(0)
2{0}
2{0}
2{0}
2{0}
2{0}
2{0}
2{0}
3{0}
3{0}
2{0}
2{0}
2{0}
1(0)
2{0}
2{0}
2{0}
2{0}
1(0)
2{0}
2{0}
2{0}
3{0}
3{0}
2{0}
2{0}
2{0}
2{0}
2{0}
2{0}
2{0}
1(0)
1(0)
1(0)
2{0}
2{0}
2{0}
2{0}
2{0}
2{0}
2{0}
3{0}
3{0}
2{0}
2{0}
2{0}
1(0)
2{0}
2{0}
2{0}
2{0}
1(0)
2{0}
2{0}
2{0}
3{0}
3{0}
2{0}
2{0}
2{0}
2{0}
2{0}
2{0}
2{0}
1(0)
1(0)
1(0)
2{0}
2{0}
2{0}
2{0}
2{0}
2{0}
2{0}
3{0}
3{0}
2{0}
2{0}
2{0}
1(0)
2{0}
2{0}
2{0}
2{0}
1(0)
2{0}
2{0}
2{0}
3{0}
3{0}
2{0}
2{0}
2{0}
2{0}
2{0}
2{0}
2{0}
1(0)
0()
0()
1(0)
1(0)
1(0)
1(0)
1(0)
1(0)
1(0)
2{0}
2{0}
1(0)
2{0}
1(0)
0()
1(0)
1(0)
1(0)
1(0)
0()
1(0)
1(0)
1(0)
2{0}
2{0}
1(0)
1(0)
1(0)
1(0)
1(0)
1(0)
1(0)
0()
1(0)
1(0)
2{0}
2{0}
2{0}
2{0}
2{0}
2{0}
2{0}
3{0}
3{0}
3{0}
3{0}
1(0)
1(0)
2{0}
2{0}
2{0}
2{0}
1(0)
2{0}
3{0}
2{0}
3{0}
3{0}
2{0}
2{0}
2{0}
2{0}
2{0}
2{0}
2{0}
1(0)
1(0)
1(0)
2{0}
2{0}
2{0}
2{0}
2{0}
2{0}
2{0}
3{0}
4{0}
2{0}
3{0}
4{0}
2{0}
2{0}
2{0}
2{0}
2{0}
1(0)
3{0}
2{0}
2{0}
4{0}
3{0}
2{0}
2{0}
2{0}
2{0}
2{0}
2{0}
2{0}
1(0)
1(0)
1(0)
2{0}
2{0}
2{0}
2{0}
2{0}
2{0}
2{0}
3{0}
4{0}
3{0}
2{0}
3{0}
1(0)
2{0}
2{0}
2{0}
2{0}
1(0)
2{0}
2{0}
3{0}
4{0}
3{0}
2{0}
2{0}
2{0}
2{0}
2{0}
2{0}
2{0}
1(0)
2{0}
2{0}
3{0}
3{0}
3{0}
3{0}
3{0}
3{0}
3{0}
4{0}
2{0}
4{0}
4{0}
3{0}
2{0}
3{0}
3{0}
3{0}
3{0}
2{0}
3{0}
4{0}
4{0}
2{0}
4{0}
3{0}
3{0}
3{0}
3{0}
3{0}
3{0}
3{0}
2{0}
2{0}
2{0}
3{0}
3{0}
3{0}
3{0}
3{0}
3{0}
3{0}
5{0}
5{0}
3{0}
3{0}
3{0}
2{0}
3{0}
3{0}
3{0}
3{0}
2{0}
3{0}
3{0}
3{0}
5{0}
5{0}
3{0}
3{0}
3{0}
3{0}
3{0}
3{0}
3{0}
2{0}
1(0)
1(0)
2{0}
2{0}
2{0}
2{0}
2{0}
2{0}
2{0}
3{0}
3{0}
2{0}
2{0}
2{0}
1(0)
2{0}
2{0}
2{0}
2{0}
1(0)
2{0}
2{0}
2{0}
3{0}
3{0}
2{0}
2{0}
2{0}
2{0}
2{0}
2{0}
2{0}
1(0)
1(0)
1(0)
2{0}
2{0}
2{0}
2{0}
2{0}
2{0}
2{0}
3{0}
3{0}
2{0}
2{0}
2{0}
1(0)
2{0}
2{0}
2{0}
2{0}
1(0)
2{0}
2{0}
2{0}
3{0}
3{0}
2{0}
2{0}
1(0)
2{0}
2{0}
2{0}
2{0}
1(0)
1(0)
1(0)
2{0}
2{0}
2{0}
2{0}
2{0}
2{0}
2{0}
3{0}
3{0}
2{0}
2{0}
2{0}
1(0)
2{0}
2{0}
2{0}
2{0}
1(0)
2{0}
2{0}
2{0}
3{0}
3{0}
2{0}
1(0)
3{0}
4{0}
3{0}
2{0}
2{0}
1(0)
1(0)
1(0)
2{0}
2{0}
2{0}
2{0}
2{0}
2{0}
2{0}
3{0}
3{0}
2{0}
2{0}
2{0}
1(0)
2{0}
2{0}
2{0}
2{0}
1(0)
2{0}
2{0}
2{0}
3{0}
3{0}
2{0}
2{0}
4{0}
2{0}
3{0}
3{0}
2{0}
1(0)
1(0)
1(0)
2{0}
2{0}
2{0}
2{0}
2{0}
2{0}
2{0}
3{0}
3{0}
2{0}
2{0}
2{0}
1(0)
2{0}
2{0}
2{0}
2{0}
1(0)
2{0}
2{0}
2{0}
3{0}
3{0}
2{0}
2{0}
3{0}
4{0}
3{0}
3{0}
3{0}
1(0)
1(0)
1(0)
2{0}
2{0}
2{0}
2{0}
2{0}
2{0}
2{0}
3{0}
3{0}
2{0}
2{0}
2{0}
1(0)
2{0}
2{0}
2{0}
2{0}
1(0)
2{0}
2{0}
2{0}
3{0}
3{0}
2{0}
2{0}
2{0}
3{0}
4{0}
3{0}
3{0}
2{0}
1(0)
1(0)
2{0}
2{0}
2{0}
2{0}
2{0}
2{0}
2{0}
3{0}
3{0}
2{0}
2{0}
2{0}
1(0)
2{0}
2{0}
2{0}
2{0}
1(0)
2{0}
2{0}
2{0}
3{0}
3{0}
2{0}
2{0}
2{0}
2{0}
3{0}
4{0}
2{0}
1(0)
0()
0()
1(0)
1(0)
1(0)
1(0)
1(0)
1(0)
1(0)
2{0}
2{0}
1(0)
1(0)
1(0)
0()
1(0)
1(0)
1(0)
1(0)
0()
1(0)
1(0)
1(0)
2{0}
2{0}
1(0)
1(0)
1(0)
1(0)
1(0)
2{0}
1(0)
0()
0()
0()
1(0)
1(0)
1(0)
1(0)
1(0)
1(0)
1(0)
2{0}
2{0}
1(0)
1(0)
1(0)
0()
1(0)
1(0)
1(0)
1(0)
0()
1(0)
1(0)
1(0)
2{0}
2{0}
1(0)
1(0)
1(0)
1(0)
1(0)
1(0)
1(0)
0()
0()
0()
1(0)
1(0)
1(0)
1(0)
1(0)
1(0)
1(0)
2{0}
2{0}
1(0)
1(0)
1(0)
0()
1(0)
1(0)
1(0)
1(0)
0()
1(0)
1(0)
1(0)
2{0}
2{0}
1(0)
1(0)
1(0)
1(0)
1(0)
1(0)
1(0)
0()
1(0)
1(0)
2{0}
2{0}
2{0}
2{0}
2{0}
2{0}
2{0}
3{0}
3{0}
2{0}
2{0}
2{0}
1(0)
2{0}
2{0}
2{0}
2{0}
1(0)
2{0}
2{0}
2{0}
3{0}
3{0}
2{0}
2{0}
2{0}
2{0}
2{0}
2{0}
2{0}
1(0)
1(0)
1(0)
2{0}
2{0}
2{0}
2{0}
2{0}
2{0}
2{0}
3{0}
3{0}
2{0}
2{0}
2{0}
1(0)
2{0}
2{0}
2{0}
2{0}
1(0)
2{0}
2{0}
2{0}
3{0}
3{0}
2{0}
2{0}
2{0}
2{0}
2{0}
2{0}
2{0}
1(0)
1(0)
1(0)
2{0}
2{0}
2{0}
2{0}
2{0}
2{0}
2{0}
3{0}
3{0}
2{0}
2{0}
2{0}
1(0)
2{0}
2{0}
2{0}
2{0}
1(0)
2{0}
2{0}
2{0}
3{0}
3{0}
2{0}
2{0}
2{0}
2{0}
2{0}
2{0}
2{0}
1(0)
1(0)
1(0)
2{0}
2{0}
2{0}
2{0}
2{0}
2{0}
2{0}
3{0}
3{0}
2{0}
2{0}
2{0}
1(0)
2{0}
2{0}
2{0}
2{0}
1(0)
2{0}
2{0}
2{0}
3{0}
3{0}
2{0}
2{0}
2{0}
2{0}
2{0}
2{0}
2{0}
1(0)
1(0)
1(0)
2{0}
2{0}
2{0}
2{0}
2{0}
1(0)
2{0}
3{0}
3{0}
2{0}
2{0}
2{0}
1(0)
2{0}
2{0}
2{0}
2{0}
1(0)
2{0}
2{0}
2{0}
3{0}
3{0}
2{0}
1(0)
2{0}
2{0}
2{0}
2{0}
2{0}
1(0)
1(0)
1(0)
2{0}
2{0}
2{0}
2{0}
1(0)
2{0}
3{0}
3{0}
3{0}
2{0}
2{0}
2{0}
1(0)
2{0}
2{0}
2{0}
2{0}
1(0)
2{0}
2{0}
2{0}
3{0}
3{0}
3{0}
2{0}
1(0)
2{0}
2{0}
2{0}
2{0}
1(0)
1(0)
1(0)
2{0}
2{0}
2{0}
2{0}
2{0}
4{0}
4{0}
3{0}
3{0}
2{0}
2{0}
2{0}
1(0)
2{0}
2{0}
2{0}
2{0}
1(0)
2{0}
2{0}
2{0}
3{0}
3{0}
4{0}
4{0}
2{0}
2{0}
2{0}
2{0}
2{0}
1(0)
2{0}
2{0}
3{0}
3{0}
3{0}
3{0}
3{0}
3{0}
2{0}
4{0}
3{0}
3{0}
3{0}
3{0}
2{0}
3{0}
3{0}
3{0}
3{0}
2{0}
3{0}
3{0}
3{0}
2{0}
4{0}
2{0}
3{0}
3{0}
3{0}
3{0}
3{0}
3{0}
2{0}
2{0}
2{0}
3{0}
3{0}
3{0}
3{0}
3{0}
3{0}
3{0}
4{0}
3{0}
2{0}
3{0}
3{0}
2{0}
3{0}
3{0}
3{0}
3{0}
2{0}
3{0}
4{0}
3{0}
3{0}
3{0}
3{0}
3{0}
3{0}
3{0}
3{0}
3{0}
3{0}
2{0}
1(0)
1(0)
2{0}
2{0}
2{0}
2{0}
2{0}
2{0}
2{0}
1(0)
4{0}
2{0}
2{0}
2{0}
1(0)
2{0}
2{0}
2{0}
2{0}
1(0)
3{0}
2{0}
4{0}
4{0}
2{0}
2{0}
2{0}
2{0}
2{0}
2{0}
2{0}
2{0}
1(0)
1(0)
1(0)
2{0}
2{0}
2{0}
2{0}
2{0}
2{0}
2{0}
3{0}
4{0}