/*--------------------------------*- C++ -*----------------------------------*\
| =========                 |                                                 |
| \\      /  F ield         | OpenFOAM: The Open Source CFD Toolbox           |
|  \\    /   O peration     | Version:  2.2.x                                 |
|   \\  /    A nd           | Web:      www.OpenFOAM.org                      |
|    \\/     M anipulation  |                                                 |
\*---------------------------------------------------------------------------*/
FoamFile
{
    version     2.0;
    format      ascii;
    class       labelFieldField;
    location    "0.0002";
    object      collisionRecordsPairOrigIdOfOther;
}
// * * * * * * * * * * * * * * * * * * * * * * * * * * * * * * * * * * * * * //


200000
(
0()
0()
1(3)
1(2)
1(5)
1(4)
1(7)
1(6)
1(9)
2(8 10)
2(9 11)
1(10)
1(13)
1(12)
0()
1(16)
1(15)
1(18)
1(17)
0()
1(21)
1(20)
1(23)
2(22 24)
2(23 25)
1(24)
1(27)
1(26)
1(29)
1(28)
1(31)
2(30 32)
2(65 31)
0()
0()
1(36)
1(35)
1(38)
1(37)
1(40)
1(39)
1(42)
2(41 43)
2(42 44)
1(43)
1(46)
1(45)
0()
1(49)
1(48)
1(51)
1(50)
0()
1(54)
1(53)
1(56)
2(55 57)
2(56 58)
1(57)
1(60)
1(59)
1(62)
1(61)
1(64)
1(63)
2(32 1154)
1(99)
1(100)
2(69 101)
1(68)
2(71 103)
2(70 104)
2(73 105)
2(72 106)
2(75 107)
3(74 76 108)
3(75 77 109)
2(76 110)
2(79 111)
2(78 112)
1(113)
2(82 114)
2(81 115)
2(84 116)
2(83 117)
1(118)
2(87 119)
2(86 120)
2(89 121)
3(88 90 122)
3(89 91 123)
2(90 124)
2(93 125)
2(92 126)
2(95 127)
2(94 128)
2(97 129)
2(96 130)
1(131)
1(66)
2(67 101)
3(68 102 100)
3(101 135 1191)
2(70 104)
2(103 71)
2(106 72)
2(105 73)
2(74 108)
3(107 75 109)
3(76 108 110)
2(77 109)
2(78 112)
2(79 111)
1(80)
2(81 115)
2(82 114)
2(83 117)
2(84 116)
1(85)
2(86 120)
2(87 119)
2(88 122)
3(89 121 123)
3(90 122 124)
2(91 123)
2(126 92)
2(93 125)
2(94 128)
2(95 127)
2(96 130)
2(97 129)
1(98)
1(165)
1(166)
1(167)
3(102 168 136)
3(137 169 135)
1(136)
2(139 171)
2(138 172)
2(141 173)
3(140 142 174)
3(141 143 175)
2(142 176)
2(145 177)
2(144 178)
1(179)
2(148 180)
2(147 181)
2(150 182)
2(149 183)
1(184)
2(153 185)
2(152 186)
2(155 187)
3(154 156 188)
3(155 157 189)
2(156 190)
2(159 191)
2(158 192)
1(161)
2(160 194)
2(163 195)
2(162 196)
1(197)
1(132)
1(133)
2(134 168)
3(135 167 169)
3(136 170 168)
3(169 203 1259)
3(172 138 204)
2(139 171)
2(140 174)
3(141 173 175)
3(142 174 176)
2(143 175)
2(144 178)
2(145 177)
1(146)
2(147 181)
2(148 180)
2(149 183)
2(150 182)
1(151)
2(152 186)
2(153 185)
2(154 188)
3(155 187 189)
3(156 188 190)
2(157 189)
2(192 158)
3(159 191 225)
3(194 226 1282)
3(161 193 195)
3(162 196 194)
2(163 195)
1(164)
1(231)
1(232)
2(233 201)
2(234 200)
2(235 203)
4(236 170 202 204)
3(171 203 1293)
1(238)
2(239 207)
3(240 206 208)
3(241 207 209)
2(242 208)
2(243 211)
2(244 210)
1(245)
2(246 214)
2(247 213)
2(248 216)
2(249 215)
1(250)
2(251 219)
2(252 218)
2(253 221)
3(254 220 222)
3(255 221 223)
2(256 222)
1(257)
3(192 226 1314)
4(259 193 225 227)
2(260 226)
2(261 229)
2(262 228)
1(263)
1(198)
1(199)
2(200 234)
2(233 201)
2(202 236)
2(235 203)
1(238)
2(237 205)
2(206 240)
3(239 207 241)
3(240 208 242)
2(241 209)
2(210 244)
2(243 211)
1(212)
2(213 247)
2(246 214)
2(215 249)
2(248 216)
1(217)
2(218 252)
2(251 219)
2(220 254)
3(253 221 255)
3(254 222 256)
2(255 223)
2(258 224)
1(257)
2(226 260)
2(259 227)
2(228 262)
2(261 229)
1(230)
1(297)
1(298)
2(267 299)
2(266 300)
2(269 301)
2(268 302)
2(271 303)
2(270 304)
2(273 305)
3(272 274 306)
3(273 275 307)
2(274 308)
2(277 309)
2(276 310)
1(311)
2(280 312)
2(279 313)
2(282 314)
2(281 315)
1(316)
2(285 317)
2(284 318)
2(287 319)
3(286 288 320)
3(287 289 321)
2(288 322)
2(291 323)
2(290 324)
2(293 325)
2(292 326)
2(295 327)
2(294 328)
1(329)
2(264 330)
2(265 331)
3(266 300 332)
3(267 299 333)
3(268 302 334)
3(269 301 335)
3(304 270 336)
3(271 303 337)
3(272 306 338)
4(273 305 307 339)
4(274 306 308 340)
3(275 307 341)
3(276 310 342)
3(277 309 343)
2(278 344)
3(279 313 345)
3(280 312 346)
3(281 315 347)
3(282 314 348)
2(283 349)
3(284 318 350)
3(285 317 351)
3(286 320 352)
4(287 319 321 353)
4(288 320 322 354)
3(289 321 355)
3(324 290 356)
3(291 323 357)
3(292 326 358)
3(293 325 359)
3(294 328 360)
3(295 327 361)
2(296 362)
2(297 363)
2(298 364)
3(299 333 365)
3(300 332 366)
3(301 335 367)
3(302 334 368)
3(337 303 369)
3(304 336 370)
3(305 339 371)
4(306 338 340 372)
4(307 339 341 373)
3(308 340 374)
3(309 343 375)
3(310 342 376)
2(311 377)
3(312 346 378)
3(313 345 379)
3(314 348 380)
3(315 347 381)
2(316 382)
3(317 351 383)
3(318 350 384)
3(319 353 385)
4(320 352 354 386)
4(321 353 355 387)
3(322 354 388)
3(357 323 389)
3(324 356 390)
3(325 359 391)
3(326 358 392)
3(327 361 393)
3(328 360 394)
2(329 395)
1(330)
1(331)
2(332 366)
2(333 365)
2(334 368)
2(335 367)
2(370 336)
2(337 369)
2(338 372)
3(339 371 373)
3(340 372 374)
2(341 373)
2(342 376)
2(343 375)
1(344)
2(345 379)
2(346 378)
2(347 381)
2(348 380)
1(349)
2(350 384)
2(351 383)
2(352 386)
3(353 385 387)
3(354 386 388)
2(355 387)
2(390 356)
2(357 389)
2(358 392)
2(359 391)
2(360 394)
2(361 393)
1(362)
1(429)
1(430)
2(399 431)
2(398 432)
2(401 433)
2(400 434)
2(403 435)
2(402 436)
2(405 437)
3(404 406 438)
3(405 407 439)
2(406 440)
2(409 441)
2(408 442)
1(443)
2(412 444)
2(411 445)
2(414 446)
2(413 447)
1(448)
2(417 449)
2(416 450)
2(419 451)
3(418 420 452)
3(419 421 453)
2(420 454)
2(423 455)
2(422 456)
2(425 457)
2(424 458)
2(427 459)
2(426 460)
1(461)
1(396)
1(397)
2(398 432)
2(399 431)
2(400 434)
2(401 433)
2(436 402)
2(403 435)
2(404 438)
3(405 437 439)
3(406 438 440)
2(407 439)
2(408 442)
2(409 441)
1(410)
2(411 445)
2(412 444)
2(413 447)
2(414 446)
1(415)
2(416 450)
2(417 449)
2(418 452)
3(419 451 453)
3(420 452 454)
2(421 453)
2(456 422)
2(423 455)
2(424 458)
2(425 457)
2(426 460)
2(427 459)
1(428)
0()
0()
1(465)
1(464)
1(467)
1(466)
1(469)
1(468)
1(471)
2(470 472)
2(471 473)
1(472)
1(475)
1(474)
0()
1(478)
1(477)
2(480 512)
1(479)
0()
1(483)
1(482)
1(485)
2(484 486)
2(485 487)
1(486)
1(489)
1(488)
1(491)
1(490)
1(493)
1(492)
0()
1(528)
1(529)
2(498 530)
2(497 531)
2(500 532)
2(499 533)
2(502 534)
2(501 535)
2(504 536)
3(503 505 537)
3(504 506 538)
2(505 539)
2(508 540)
2(507 541)
1(542)
2(511 543)
3(510 544 512)
3(545 479 511)
0()
1(547)
2(516 548)
2(515 549)
2(518 550)
3(517 519 551)
3(518 520 552)
2(519 553)
2(522 554)
2(521 555)
2(524 556)
2(523 557)
2(526 558)
2(525 559)
1(560)
1(495)
1(496)
2(497 531)
2(498 530)
2(499 533)
2(500 532)
2(535 501)
2(502 534)
2(503 537)
3(504 536 538)
3(505 537 539)
2(506 538)
2(507 541)
2(508 540)
1(509)
3(510 544 576)
2(511 543)
3(512 546 1634)
3(545 579 547)
2(514 546)
2(515 549)
2(516 548)
2(517 551)
3(518 550 552)
3(519 551 553)
2(520 552)
2(555 521)
2(522 554)
2(523 557)
2(524 556)
2(525 559)
2(526 558)
1(527)
1(594)
1(595)
2(564 596)
2(563 597)
2(566 598)
2(565 599)
2(568 600)
2(567 601)
2(570 602)
3(569 571 603)
3(570 572 604)
2(571 605)
2(574 606)
2(573 607)
2(608 576)
3(577 575 543)
3(576 610 1666)
3(579 611 1667)
3(578 546 580)
2(613 579)
2(582 614)
2(581 615)
2(584 616)
3(583 585 617)
3(584 586 618)
2(585 619)
2(588 620)
2(587 621)
2(590 622)
2(589 623)
2(592 624)
2(591 625)
1(626)
1(561)
1(562)
2(563 597)
2(564 596)
2(565 599)
2(566 598)
2(601 567)
2(568 600)
2(569 603)
3(570 602 604)
3(571 603 605)
2(572 604)
2(573 607)
2(574 606)
1(575)
3(610 642 1698)
4(577 609 611 643)
4(578 612 610 644)
3(611 645 1701)
1(580)
2(581 615)
2(582 614)
2(583 617)
3(584 616 618)
3(585 617 619)
2(586 618)
2(621 587)
2(588 620)
2(589 623)
2(590 622)
2(591 625)
2(592 624)
1(593)
0()
0()
1(630)
1(629)
1(632)
1(631)
1(634)
1(633)
1(636)
2(635 637)
2(636 638)
1(637)
1(640)
1(639)
1(642)
3(609 641 675)
1(610)
1(611)
3(612 646 678)
1(645)
1(648)
1(647)
1(650)
2(649 651)
2(650 652)
1(651)
1(654)
1(653)
1(656)
1(655)
1(658)
1(657)
0()
1(693)
1(694)
2(663 695)
2(662 696)
2(665 697)
2(664 698)
2(667 699)
2(666 700)
2(669 701)
3(668 670 702)
3(669 671 703)
2(670 704)
2(673 705)
2(672 706)
1(707)
3(676 708 642)
2(675 709)
2(678 710)
3(677 711 645)
1(712)
2(681 713)
2(680 714)
2(683 715)
3(682 684 716)
3(683 685 717)
2(684 718)
2(687 719)
2(686 720)
2(689 721)
2(688 722)
2(691 723)
2(690 724)
1(725)
1(660)
1(661)
2(662 696)
2(663 695)
2(664 698)
2(665 697)
2(700 666)
2(667 699)
2(668 702)
3(669 701 703)
3(670 702 704)
2(671 703)
2(672 706)
2(673 705)
1(674)
2(675 709)
2(676 708)
2(677 711)
2(678 710)
1(679)
2(680 714)
2(681 713)
2(682 716)
3(683 715 717)
3(684 716 718)
2(685 717)
2(720 686)
2(687 719)
2(688 722)
2(689 721)
2(690 724)
2(691 723)
1(692)
1(759)
1(760)
2(729 761)
2(728 762)
2(731 763)
2(730 764)
2(733 765)
2(732 766)
2(735 767)
3(734 736 768)
3(735 737 769)
2(736 770)
2(739 771)
2(738 772)
1(773)
2(742 774)
2(741 775)
2(744 776)
2(743 777)
1(778)
2(747 779)
2(746 780)
2(749 781)
3(748 750 782)
3(749 751 783)
2(750 784)
2(753 785)
2(752 786)
2(755 787)
2(754 788)
2(757 789)
2(756 790)
1(791)
2(726 792)
2(727 793)
3(728 762 794)
3(729 761 795)
3(730 764 796)
3(731 763 797)
3(766 732 798)
3(733 765 799)
3(734 768 800)
4(735 767 769 801)
4(736 768 770 802)
3(737 769 803)
3(738 772 804)
3(739 771 805)
2(740 806)
3(741 775 807)
3(742 774 808)
3(743 777 809)
3(744 776 810)
2(745 811)
3(746 780 812)
3(747 779 813)
3(748 782 814)
4(749 781 783 815)
4(750 782 784 816)
3(751 783 817)
3(786 752 818)
3(753 785 819)
3(754 788 820)
3(755 787 821)
3(756 790 822)
3(757 789 823)
2(758 824)
2(759 825)
2(760 826)
3(761 795 827)
3(762 794 828)
3(763 797 829)
3(764 796 830)
3(799 765 831)
3(766 798 832)
3(767 801 833)
4(768 800 802 834)
4(769 801 803 835)
3(770 802 836)
3(771 805 837)
3(772 804 838)
2(773 839)
3(774 808 840)
3(775 807 841)
3(776 810 842)
3(777 809 843)
2(778 844)
3(779 813 845)
3(780 812 846)
3(781 815 847)
4(782 814 816 848)
4(783 815 817 849)
3(784 816 850)
3(819 785 851)
3(786 818 852)
3(787 821 853)
3(788 820 854)
3(789 823 855)
3(790 822 856)
2(791 857)
1(792)
1(793)
2(794 828)
2(795 827)
2(796 830)
2(797 829)
2(832 798)
2(799 831)
2(800 834)
3(801 833 835)
3(802 834 836)
2(803 835)
2(804 838)
2(805 837)
1(806)
2(807 841)
2(808 840)
2(809 843)
2(810 842)
1(811)
2(812 846)
2(813 845)
2(814 848)
3(815 847 849)
3(816 848 850)
2(817 849)
2(852 818)
2(819 851)
2(820 854)
2(821 853)
2(822 856)
2(823 855)
1(824)
1(891)
1(892)
2(893 861)
2(894 860)
2(895 863)
2(896 862)
1(865)
2(898 864)
2(899 867)
3(900 866 868)
3(901 867 869)
2(902 868)
2(903 871)
2(904 870)
1(905)
2(906 874)
2(907 873)
2(908 876)
2(909 875)
1(910)
2(911 879)
2(912 878)
2(913 881)
3(914 880 882)
3(915 881 883)
2(916 882)
2(885 917)
1(884)
2(919 887)
2(920 886)
2(921 889)
2(922 888)
1(923)
1(858)
1(859)
2(860 894)
2(893 861)
2(862 896)
3(895 863 897)
3(896 930 1986)
1(865)
2(866 900)
3(899 867 901)
3(900 868 902)
2(901 869)
2(870 904)
2(903 871)
1(872)
2(873 907)
2(906 874)
2(875 909)
2(908 876)
1(877)
2(878 912)
2(911 879)
2(880 914)
3(913 881 915)
3(914 882 916)
2(915 883)
1(884)
3(919 951 2007)
3(918 886 920)
2(919 887)
2(888 922)
2(921 889)
1(890)
1(957)
1(958)
2(927 959)
2(926 960)
1(961)
3(930 962 2018)
4(931 897 929 963)
2(930 964)
2(933 965)
3(932 934 966)
3(933 935 967)
2(934 968)
2(937 969)
2(936 970)
1(971)
2(940 972)
2(939 973)
2(942 974)
2(941 975)
1(976)
2(945 977)
2(944 978)
2(947 979)
3(946 948 980)
3(947 949 981)
2(948 982)
2(951 983)
4(918 950 952 984)
3(951 985 2041)
1(986)
2(955 987)
2(954 988)
1(989)
1(924)
1(925)
2(926 960)
2(927 959)
3(928 962 994)
3(929 961 995)
2(964 930)
2(931 963)
2(932 966)
3(933 965 967)
3(934 966 968)
2(935 967)
2(936 970)
2(937 969)
1(938)
2(939 973)
2(940 972)
2(941 975)
2(942 974)
1(943)
2(944 978)
2(945 977)
2(946 980)
3(947 979 981)
3(948 980 982)
2(949 981)
2(984 950)
2(951 983)
3(952 986 1018)
3(953 985 1019)
2(954 988)
2(955 987)
1(956)
1(1023)
1(1024)
1(1025)
3(994 1026 2082)
3(993 995 961)
3(994 1028 962)
2(997 1029)
2(996 1030)
2(999 1031)
3(998 1000 1032)
3(999 1001 1033)
2(1000 1034)
2(1003 1035)
2(1002 1036)
1(1037)
2(1006 1038)
2(1005 1039)
2(1008 1040)
2(1007 1041)
1(1042)
2(1011 1043)
2(1010 1044)
2(1013 1045)
3(1012 1014 1046)
3(1013 1015 1047)
2(1014 1048)
2(1017 1049)
2(1016 1050)
3(1019 1051 985)
3(1018 1020 986)
3(1019 1053 2109)
1(1054)
1(1055)
1(990)
1(991)
2(992 1026)
3(993 1025 1059)
1(1028)
2(995 1027)
2(1030 996)
2(997 1029)
2(998 1032)
3(999 1031 1033)
3(1000 1032 1034)
2(1001 1033)
2(1002 1036)
2(1003 1035)
1(1004)
2(1005 1039)
2(1006 1038)
2(1007 1041)
2(1008 1040)
1(1009)
2(1010 1044)
2(1011 1043)
2(1012 1046)
3(1013 1045 1047)
3(1014 1046 1048)
2(1015 1047)
2(1050 1016)
2(1017 1049)
2(1018 1052)
1(1051)
3(1020 1054 1086)
2(1021 1053)
1(1022)
0()
0()
1(1059)
2(1058 1026)
1(1061)
1(1060)
1(1063)
1(1062)
1(1065)
2(1064 1066)
2(1065 1067)
1(1066)
1(1069)
1(1068)
0()
1(1072)
1(1071)
1(1074)
1(1073)
0()
1(1077)
1(1076)
1(1079)
2(1078 1080)
2(1079 1081)
1(1080)
1(1083)
1(1082)
1(1085)
1(1084)
2(1087 1053)
1(1086)
1(2177)
1(2178)
1(2179)
2(1092 2180)
2(1091 2181)
2(1094 2182)
2(1093 2183)
2(1096 2184)
2(1095 2185)
2(1098 2186)
3(1097 1099 2187)
3(1098 1100 2188)
2(1099 2189)
2(1102 2190)
2(1101 2191)
1(2192)
2(1105 2193)
2(1104 2194)
2(1107 2195)
2(1106 2196)
1(2197)
2(1110 2198)
2(1109 2199)
2(1112 2200)
3(1111 1113 2201)
3(1112 1114 2202)
2(1113 2203)
2(1116 2204)
2(1115 2205)
2(1118 2206)
2(1117 2207)
2(1120 2208)
3(1119 1121 2209)
2(1154 1120)
1(2211)
1(2212)
2(1125 2213)
2(1124 2214)
2(1127 2215)
2(1126 2216)
2(1129 2217)
2(1128 2218)
2(1131 2219)
3(1130 1132 2220)
3(1131 1133 2221)
2(1132 2222)
2(1135 2223)
2(1134 2224)
1(2225)
2(1138 2226)
2(1137 2227)
2(1140 2228)
2(1139 2229)
1(2230)
2(1143 2231)
2(1142 2232)
2(1145 2233)
3(1144 1146 2234)
3(1145 1147 2235)
2(1146 2236)
2(1149 2237)
2(1148 2238)
2(1151 2239)
2(1150 2240)
2(1153 2241)
2(1152 2242)
3(65 1121 2243)
2(1188 2244)
2(1189 2245)
3(1158 1190 2246)
2(1157 2247)
3(1160 1192 2248)
3(1159 1193 2249)
3(1162 1194 2250)
3(1161 1195 2251)
3(1164 1196 2252)
4(1163 1165 1197 2253)
4(1164 1166 1198 2254)
3(1165 1199 2255)
3(1168 1200 2256)
3(1167 1201 2257)
2(1202 2258)
3(1171 1203 2259)
3(1170 1204 2260)
3(1173 1205 2261)
3(1172 1206 2262)
2(1207 2263)
3(1176 1208 2264)
3(1175 1209 2265)
3(1178 1210 2266)
4(1177 1179 1211 2267)
4(1178 1180 1212 2268)
3(1179 1213 2269)
3(1182 1214 2270)
3(1181 1215 2271)
3(1184 1216 2272)
3(1183 1217 2273)
3(1186 1218 2274)
3(1185 1219 2275)
2(1220 2276)
2(1155 2277)
3(1156 1190 2278)
4(1157 1191 1189 2279)
3(102 1190 1224)
3(1159 1193 2281)
3(1160 1192 2282)
3(1195 1161 2283)
3(1162 1194 2284)
3(1163 1197 2285)
4(1164 1196 1198 2286)
4(1165 1197 1199 2287)
3(1166 1198 2288)
3(1167 1201 2289)
3(1168 1200 2290)
2(1169 2291)
3(1170 1204 2292)
3(1171 1203 2293)
3(1172 1206 2294)
3(1173 1205 2295)
2(1174 2296)
3(1175 1209 2297)
3(1176 1208 2298)
3(1177 1211 2299)
4(1178 1210 1212 2300)
4(1179 1211 1213 2301)
3(1180 1212 2302)
3(1215 1181 2303)
3(1182 1214 2304)
3(1183 1217 2305)
3(1184 1216 2306)
3(1185 1219 2307)
3(1186 1218 2308)
2(1187 2309)
2(1254 2310)
2(1255 2311)
2(1256 2312)
4(1191 1257 1225 2313)
4(1226 1258 1224 2314)
2(1225 2315)
3(1228 1260 2316)
3(1227 1261 2317)
3(1230 1262 2318)
4(1229 1231 1263 2319)
4(1230 1232 1264 2320)
3(1231 1265 2321)
3(1234 1266 2322)
3(1233 1267 2323)
2(1268 2324)
3(1237 1269 2325)
3(1236 1270 2326)
3(1239 1271 2327)
3(1238 1272 2328)
2(1273 2329)
3(1242 1274 2330)
3(1241 1275 2331)
3(1244 1276 2332)
4(1243 1245 1277 2333)
4(1244 1246 1278 2334)
3(1245 1279 2335)
3(1248 1280 2336)
3(1247 1281 2337)
2(1250 2338)
3(1249 1283 2339)
3(1252 1284 2340)
3(1251 1285 2341)
2(1286 2342)
2(1221 2343)
2(1222 2344)
3(1223 1257 2345)
4(1224 1256 1258 2346)
3(1225 1259 1257)
4(170 1258 1292 2348)
3(1261 1227 1293)
3(1228 1260 2350)
3(1229 1263 2351)
4(1230 1262 1264 2352)
4(1231 1263 1265 2353)
3(1232 1264 2354)
3(1233 1267 2355)
3(1234 1266 2356)
2(1235 2357)
3(1236 1270 2358)
3(1237 1269 2359)
3(1238 1272 2360)
3(1239 1271 2361)
2(1240 2362)
3(1241 1275 2363)
3(1242 1274 2364)
3(1243 1277 2365)
4(1244 1276 1278 2366)
4(1245 1277 1279 2367)
3(1246 1278 2368)
3(1281 1247 2369)
3(1248 1280 1314)
3(193 1283 1315)
4(1250 1282 1284 2372)
4(1251 1285 1283 2373)
3(1252 1284 2374)
2(1253 2375)
2(1320 2376)
2(1321 2377)
3(1322 1290 2378)
3(1323 1289 2379)
3(1324 1292 2380)
4(1325 1259 1291 1293)
4(204 1260 1292 2382)
2(1327 2383)
3(1328 1296 2384)
4(1329 1295 1297 2385)
4(1330 1296 1298 2386)
3(1331 1297 2387)
3(1332 1300 2388)
3(1333 1299 2389)
2(1334 2390)
3(1335 1303 2391)
3(1336 1302 2392)
3(1337 1305 2393)
3(1338 1304 2394)
2(1339 2395)
3(1340 1308 2396)
3(1341 1307 2397)
3(1342 1310 2398)
4(1343 1309 1311 2399)
4(1344 1310 1312 2400)
3(1345 1311 2401)
2(1346 2402)
4(225 1281 1315 2403)
4(1348 1282 1314 1316)
3(1349 1315 2405)
3(1350 1318 2406)
3(1351 1317 2407)
2(1352 2408)
2(1287 2409)
2(1288 2410)
3(1289 1323 2411)
3(1322 1290 2412)
3(1291 1325 2413)
3(1324 1292 2414)
2(1327 2415)
3(1326 1294 2416)
3(1295 1329 2417)
4(1328 1296 1330 2418)
4(1329 1297 1331 2419)
3(1330 1298 2420)
3(1299 1333 2421)
3(1332 1300 2422)
2(1301 2423)
3(1302 1336 2424)
3(1335 1303 2425)
3(1304 1338 2426)
3(1337 1305 2427)
2(1306 2428)
3(1307 1341 2429)
3(1340 1308 2430)
3(1309 1343 2431)
4(1342 1310 1344 2432)
4(1343 1311 1345 2433)
3(1344 1312 2434)
3(1347 1313 2435)
2(1346 2436)
3(1315 1349 2437)
3(1348 1316 2438)
3(1317 1351 2439)
3(1350 1318 2440)
2(1319 2441)
2(1386 2442)
2(1387 2443)
3(1356 1388 2444)
3(1355 1389 2445)
3(1358 1390 2446)
3(1357 1391 2447)
3(1360 1392 2448)
3(1359 1393 2449)
3(1362 1394 2450)
4(1361 1363 1395 2451)
4(1362 1364 1396 2452)
3(1363 1397 2453)
3(1366 1398 2454)
3(1365 1399 2455)
2(1400 2456)
3(1369 1401 2457)
3(1368 1402 2458)
3(1371 1403 2459)
3(1370 1404 2460)
2(1405 2461)
3(1374 1406 2462)
3(1373 1407 2463)
3(1376 1408 2464)
4(1375 1377 1409 2465)
4(1376 1378 1410 2466)
3(1377 1411 2467)
3(1380 1412 2468)
3(1379 1413 2469)
3(1382 1414 2470)
3(1381 1415 2471)
3(1384 1416 2472)
3(1383 1417 2473)
2(1418 2474)
3(1353 1419 2475)
3(1354 1420 2476)
4(1355 1389 1421 2477)
4(1356 1388 1422 2478)
4(1357 1391 1423 2479)
4(1358 1390 1424 2480)
4(1393 1359 1425 2481)
4(1360 1392 1426 2482)
4(1361 1395 1427 2483)
5(1362 1394 1396 1428 2484)
5(1363 1395 1397 1429 2485)
4(1364 1396 1430 2486)
4(1365 1399 1431 2487)
4(1366 1398 1432 2488)
3(1367 1433 2489)
4(1368 1402 1434 2490)
4(1369 1401 1435 2491)
4(1370 1404 1436 2492)
4(1371 1403 1437 2493)
3(1372 1438 2494)
4(1373 1407 1439 2495)
4(1374 1406 1440 2496)
4(1375 1409 1441 2497)
5(1376 1408 1410 1442 2498)
5(1377 1409 1411 1443 2499)
4(1378 1410 1444 2500)
4(1413 1379 1445 2501)
4(1380 1412 1446 2502)
4(1381 1415 1447 2503)
4(1382 1414 1448 2504)
4(1383 1417 1449 2505)
4(1384 1416 1450 2506)
3(1385 1451 2507)
3(1386 1452 2508)
3(1387 1453 2509)
4(1388 1422 1454 2510)
4(1389 1421 1455 2511)
4(1390 1424 1456 2512)
4(1391 1423 1457 2513)
4(1426 1392 1458 2514)
4(1393 1425 1459 2515)
4(1394 1428 1460 2516)
5(1395 1427 1429 1461 2517)
5(1396 1428 1430 1462 2518)
4(1397 1429 1463 2519)
4(1398 1432 1464 2520)
4(1399 1431 1465 2521)
3(1400 1466 2522)
4(1401 1435 1467 2523)
4(1402 1434 1468 2524)
4(1403 1437 1469 2525)
4(1404 1436 1470 2526)
3(1405 1471 2527)
4(1406 1440 1472 2528)
4(1407 1439 1473 2529)
4(1408 1442 1474 2530)
5(1409 1441 1443 1475 2531)
5(1410 1442 1444 1476 2532)
4(1411 1443 1477 2533)
4(1446 1412 1478 2534)
4(1413 1445 1479 2535)
4(1414 1448 1480 2536)
4(1415 1447 1481 2537)
4(1416 1450 1482 2538)
4(1417 1449 1483 2539)
3(1418 1484 2540)
2(1419 2541)
2(1420 2542)
3(1421 1455 2543)
3(1422 1454 2544)
3(1423 1457 2545)
3(1424 1456 2546)
3(1459 1425 2547)
3(1426 1458 2548)
3(1427 1461 2549)
4(1428 1460 1462 2550)
4(1429 1461 1463 2551)
3(1430 1462 2552)
3(1431 1465 2553)
3(1432 1464 2554)
2(1433 2555)
3(1434 1468 2556)
3(1435 1467 2557)
3(1436 1470 2558)
3(1437 1469 2559)
2(1438 2560)
3(1439 1473 2561)
3(1440 1472 2562)
3(1441 1475 2563)
4(1442 1474 1476 2564)
4(1443 1475 1477 2565)
3(1444 1476 2566)
3(1479 1445 2567)
3(1446 1478 2568)
3(1447 1481 2569)
3(1448 1480 2570)
3(1449 1483 2571)
3(1450 1482 2572)
2(1451 2573)
2(1518 2574)
2(1519 2575)
3(1488 1520 2576)
3(1487 1521 2577)
3(1490 1522 2578)
3(1489 1523 2579)
3(1492 1524 2580)
3(1491 1525 2581)
3(1494 1526 2582)
4(1493 1495 1527 2583)
4(1494 1496 1528 2584)
3(1495 1529 2585)
3(1498 1530 2586)
3(1497 1531 2587)
2(1532 2588)
3(1501 1533 2589)
3(1500 1534 2590)
3(1503 1535 2591)
3(1502 1536 2592)
2(1537 2593)
3(1506 1538 2594)
3(1505 1539 2595)
3(1508 1540 2596)
4(1507 1509 1541 2597)
4(1508 1510 1542 2598)
3(1509 1543 2599)
3(1512 1544 2600)
3(1511 1545 2601)
3(1514 1546 2602)
3(1513 1547 2603)
3(1516 1548 2604)
3(1515 1549 2605)
2(1550 2606)
2(1485 2607)
2(1486 2608)
3(1487 1521 2609)
3(1488 1520 2610)
3(1489 1523 2611)
3(1490 1522 2612)
3(1525 1491 2613)
3(1492 1524 2614)
3(1493 1527 2615)
4(1494 1526 1528 2616)
4(1495 1527 1529 2617)
3(1496 1528 2618)
3(1497 1531 2619)
3(1498 1530 2620)
2(1499 2621)
3(1500 1534 2622)
3(1501 1533 2623)
3(1502 1536 2624)
3(1503 1535 2625)
2(1504 2626)
3(1505 1539 2627)
3(1506 1538 2628)
3(1507 1541 2629)
4(1508 1540 1542 2630)
4(1509 1541 1543 2631)
3(1510 1542 2632)
3(1545 1511 2633)
3(1512 1544 2634)
3(1513 1547 2635)
3(1514 1546 2636)
3(1515 1549 2637)
3(1516 1548 2638)
2(1517 2639)
1(2640)
1(2641)
2(1554 2642)
2(1553 2643)
2(1556 2644)
2(1555 2645)
2(1558 2646)
2(1557 2647)
2(1560 2648)
3(1559 1561 2649)
3(1560 1562 2650)
2(1561 2651)
2(1564 2652)
2(1563 2653)
1(2654)
2(1567 2655)
2(1566 2656)
3(1569 1601 2657)
2(1568 2658)
1(2659)
2(1572 2660)
2(1571 2661)
2(1574 2662)
3(1573 1575 2663)
3(1574 1576 2664)
2(1575 2665)
2(1578 2666)
2(1577 2667)
2(1580 2668)
2(1579 2669)
2(1582 2670)
2(1581 2671)
1(2672)
2(1617 2673)
2(1618 2674)
3(1587 1619 2675)
3(1586 1620 2676)
3(1589 1621 2677)
3(1588 1622 2678)
3(1591 1623 2679)
3(1590 1624 2680)
3(1593 1625 2681)
4(1592 1594 1626 2682)
4(1593 1595 1627 2683)
3(1594 1628 2684)
3(1597 1629 2685)
3(1596 1630 2686)
2(1631 2687)
3(1600 1632 2688)
4(1599 1633 1601 2689)
3(1634 1568 1600)
1(2691)
2(1636 2692)
3(1605 1637 2693)
3(1604 1638 2694)
3(1607 1639 2695)
4(1606 1608 1640 2696)
4(1607 1609 1641 2697)
3(1608 1642 2698)
3(1611 1643 2699)
3(1610 1644 2700)
3(1613 1645 2701)
3(1612 1646 2702)
3(1615 1647 2703)
3(1614 1648 2704)
2(1649 2705)
2(1584 2706)
2(1585 2707)
3(1586 1620 2708)
3(1587 1619 2709)
3(1588 1622 2710)
3(1589 1621 2711)
3(1624 1590 2712)
3(1591 1623 2713)
3(1592 1626 2714)
4(1593 1625 1627 2715)
4(1594 1626 1628 2716)
3(1595 1627 2717)
3(1596 1630 2718)
3(1597 1629 2719)
2(1598 2720)
4(1599 1633 1665 2721)
3(1600 1632 2722)
4(545 1601 1635 2723)
3(1634 1668 1636)
3(1603 1635 2725)
3(1604 1638 2726)
3(1605 1637 2727)
3(1606 1640 2728)
4(1607 1639 1641 2729)
4(1608 1640 1642 2730)
3(1609 1641 2731)
3(1644 1610 2732)
3(1611 1643 2733)
3(1612 1646 2734)
3(1613 1645 2735)
3(1614 1648 2736)
3(1615 1647 2737)
2(1616 2738)
2(1683 2739)
2(1684 2740)
3(1653 1685 2741)
3(1652 1686 2742)
3(1655 1687 2743)
3(1654 1688 2744)
3(1657 1689 2745)
3(1656 1690 2746)
3(1659 1691 2747)
4(1658 1660 1692 2748)
4(1659 1661 1693 2749)
3(1660 1694 2750)
3(1663 1695 2751)
3(1662 1696 2752)
3(1697 1665 2753)
3(1666 1664 1632)
4(577 1665 1699 2755)
4(578 1668 1700 2756)
3(1667 1635 1669)
3(1702 1668 2758)
3(1671 1703 2759)
3(1670 1704 2760)
3(1673 1705 2761)
4(1672 1674 1706 2762)
4(1673 1675 1707 2763)
3(1674 1708 2764)
3(1677 1709 2765)
3(1676 1710 2766)
3(1679 1711 2767)
3(1678 1712 2768)
3(1681 1713 2769)
3(1680 1714 2770)
2(1715 2771)
2(1650 2772)
2(1651 2773)
3(1652 1686 2774)
3(1653 1685 2775)
3(1654 1688 2776)
3(1655 1687 2777)
3(1690 1656 2778)
3(1657 1689 2779)
3(1658 1692 2780)
4(1659 1691 1693 2781)
4(1660 1692 1694 2782)
3(1661 1693 2783)
3(1662 1696 2784)
3(1663 1695 2785)
2(1664 2786)
3(609 1699 1731)
4(1666 1698 1700 1732)
4(1667 1701 1699 1733)
3(612 1700 1734)
2(1669 2791)
3(1670 1704 2792)
3(1671 1703 2793)
3(1672 1706 2794)
4(1673 1705 1707 2795)
4(1674 1706 1708 2796)
3(1675 1707 2797)
3(1710 1676 2798)
3(1677 1709 2799)
3(1678 1712 2800)
3(1679 1711 2801)
3(1680 1714 2802)
3(1681 1713 2803)
2(1682 2804)
1(2805)
1(2806)
2(1719 2807)
2(1718 2808)
2(1721 2809)
2(1720 2810)
2(1723 2811)
2(1722 2812)
2(1725 2813)
3(1724 1726 2814)
3(1725 1727 2815)
2(1726 2816)
2(1729 2817)
2(1728 2818)
2(1731 2819)
4(1698 1730 1764 2820)
2(1699 2821)
2(1700 2822)
4(1701 1735 1767 2823)
2(1734 2824)
2(1737 2825)
2(1736 2826)
2(1739 2827)
3(1738 1740 2828)
3(1739 1741 2829)
2(1740 2830)
2(1743 2831)
2(1742 2832)
2(1745 2833)
2(1744 2834)
2(1747 2835)
2(1746 2836)
1(2837)
2(1782 2838)
2(1783 2839)
3(1752 1784 2840)
3(1751 1785 2841)
3(1754 1786 2842)
3(1753 1787 2843)
3(1756 1788 2844)
3(1755 1789 2845)
3(1758 1790 2846)
4(1757 1759 1791 2847)
4(1758 1760 1792 2848)
3(1759 1793 2849)
3(1762 1794 2850)
3(1761 1795 2851)
2(1796 2852)
4(1765 1797 1731 2853)
3(1764 1798 2854)
3(1767 1799 2855)
4(1766 1800 1734 2856)
2(1801 2857)
3(1770 1802 2858)
3(1769 1803 2859)
3(1772 1804 2860)
4(1771 1773 1805 2861)
4(1772 1774 1806 2862)
3(1773 1807 2863)
3(1776 1808 2864)
3(1775 1809 2865)
3(1778 1810 2866)
3(1777 1811 2867)
3(1780 1812 2868)
3(1779 1813 2869)
2(1814 2870)
2(1749 2871)
2(1750 2872)
3(1751 1785 2873)
3(1752 1784 2874)
3(1753 1787 2875)
3(1754 1786 2876)
3(1789 1755 2877)
3(1756 1788 2878)
3(1757 1791 2879)
4(1758 1790 1792 2880)
4(1759 1791 1793 2881)
3(1760 1792 2882)
3(1761 1795 2883)
3(1762 1794 2884)
2(1763 2885)
3(1764 1798 2886)
3(1765 1797 2887)
3(1766 1800 2888)
3(1767 1799 2889)
2(1768 2890)
3(1769 1803 2891)
3(1770 1802 2892)
3(1771 1805 2893)
4(1772 1804 1806 2894)
4(1773 1805 1807 2895)
3(1774 1806 2896)
3(1809 1775 2897)
3(1776 1808 2898)
3(1777 1811 2899)
3(1778 1810 2900)
3(1779 1813 2901)
3(1780 1812 2902)
2(1781 2903)
2(1848 2904)
2(1849 2905)
3(1818 1850 2906)
3(1817 1851 2907)
3(1820 1852 2908)
3(1819 1853 2909)
3(1822 1854 2910)
3(1821 1855 2911)
3(1824 1856 2912)
4(1823 1825 1857 2913)
4(1824 1826 1858 2914)
3(1825 1859 2915)
3(1828 1860 2916)
3(1827 1861 2917)
2(1862 2918)
3(1831 1863 2919)
3(1830 1864 2920)
3(1833 1865 2921)
3(1832 1866 2922)
2(1867 2923)
3(1836 1868 2924)
3(1835 1869 2925)
3(1838 1870 2926)
4(1837 1839 1871 2927)
4(1838 1840 1872 2928)
3(1839 1873 2929)
3(1842 1874 2930)
3(1841 1875 2931)
3(1844 1876 2932)
3(1843 1877 2933)
3(1846 1878 2934)
3(1845 1879 2935)
2(1880 2936)
3(1815 1881 2937)
3(1816 1882 2938)
4(1817 1851 1883 2939)
4(1818 1850 1884 2940)
4(1819 1853 1885 2941)
4(1820 1852 1886 2942)
4(1855 1821 1887 2943)
4(1822 1854 1888 2944)
4(1823 1857 1889 2945)
5(1824 1856 1858 1890 2946)
5(1825 1857 1859 1891 2947)
4(1826 1858 1892 2948)
4(1827 1861 1893 2949)
4(1828 1860 1894 2950)
3(1829 1895 2951)
4(1830 1864 1896 2952)
4(1831 1863 1897 2953)
4(1832 1866 1898 2954)
4(1833 1865 1899 2955)
3(1834 1900 2956)
4(1835 1869 1901 2957)
4(1836 1868 1902 2958)
4(1837 1871 1903 2959)
5(1838 1870 1872 1904 2960)
5(1839 1871 1873 1905 2961)
4(1840 1872 1906 2962)
4(1875 1841 1907 2963)
4(1842 1874 1908 2964)
4(1843 1877 1909 2965)
4(1844 1876 1910 2966)
4(1845 1879 1911 2967)
4(1846 1878 1912 2968)
3(1847 1913 2969)
3(1848 1914 2970)
3(1849 1915 2971)
4(1850 1884 1916 2972)
4(1851 1883 1917 2973)
4(1852 1886 1918 2974)
4(1853 1885 1919 2975)
4(1888 1854 1920 2976)
4(1855 1887 1921 2977)
4(1856 1890 1922 2978)
5(1857 1889 1891 1923 2979)
5(1858 1890 1892 1924 2980)
4(1859 1891 1925 2981)
4(1860 1894 1926 2982)
4(1861 1893 1927 2983)
3(1862 1928 2984)
4(1863 1897 1929 2985)
4(1864 1896 1930 2986)
4(1865 1899 1931 2987)
4(1866 1898 1932 2988)
3(1867 1933 2989)
4(1868 1902 1934 2990)
4(1869 1901 1935 2991)
4(1870 1904 1936 2992)
5(1871 1903 1905 1937 2993)
5(1872 1904 1906 1938 2994)
4(1873 1905 1939 2995)
4(1908 1874 1940 2996)
4(1875 1907 1941 2997)
4(1876 1910 1942 2998)
4(1877 1909 1943 2999)
4(1878 1912 1944 3000)
4(1879 1911 1945 3001)
3(1880 1946 3002)
2(1881 3003)
2(1882 3004)
3(1883 1917 3005)
3(1884 1916 3006)
3(1885 1919 3007)
3(1886 1918 3008)
3(1921 1887 3009)
3(1888 1920 3010)
3(1889 1923 3011)
4(1890 1922 1924 3012)
4(1891 1923 1925 3013)
3(1892 1924 3014)
3(1893 1927 3015)
3(1894 1926 3016)
2(1895 3017)
3(1896 1930 3018)
3(1897 1929 3019)
3(1898 1932 3020)
3(1899 1931 3021)
2(1900 3022)
3(1901 1935 3023)
3(1902 1934 3024)
3(1903 1937 3025)
4(1904 1936 1938 3026)
4(1905 1937 1939 3027)
3(1906 1938 3028)
3(1941 1907 3029)
3(1908 1940 3030)
3(1909 1943 3031)
3(1910 1942 3032)
3(1911 1945 3033)
3(1912 1944 3034)
2(1913 3035)
2(1980 3036)
2(1981 3037)
3(1982 1950 3038)
3(1983 1949 3039)
3(1984 1952 3040)
3(1985 1951 3041)
2(1954 3042)
3(1987 1953 3043)
3(1988 1956 3044)
4(1989 1955 1957 3045)
4(1990 1956 1958 3046)
3(1991 1957 3047)
3(1992 1960 3048)
3(1993 1959 3049)
2(1994 3050)
3(1995 1963 3051)
3(1996 1962 3052)
3(1997 1965 3053)
3(1998 1964 3054)
2(1999 3055)
3(2000 1968 3056)
3(2001 1967 3057)
3(2002 1970 3058)
4(2003 1969 1971 3059)
4(2004 1970 1972 3060)
3(2005 1971 3061)
3(1974 2006 3062)
2(1973 3063)
3(2008 1976 3064)
3(2009 1975 3065)
3(2010 1978 3066)
3(2011 1977 3067)
2(2012 3068)
2(1947 3069)
2(1948 3070)
3(1949 1983 3071)
3(1982 1950 3072)
3(1951 1985 3073)
3(1984 1952 1986)
4(897 1985 2019 3075)
2(1954 3076)
3(1955 1989 3077)
4(1988 1956 1990 3078)
4(1989 1957 1991 3079)
3(1990 1958 3080)
3(1959 1993 3081)
3(1992 1960 3082)
2(1961 3083)
3(1962 1996 3084)
3(1995 1963 3085)
3(1964 1998 3086)
3(1997 1965 3087)
2(1966 3088)
3(1967 2001 3089)
3(2000 1968 3090)
3(1969 2003 3091)
4(2002 1970 2004 3092)
4(2003 1971 2005 3093)
3(2004 1972 3094)
2(1973 3095)
4(918 2008 2040 3096)
3(2007 1975 2009)
3(2008 1976 3098)
3(1977 2011 3099)
3(2010 1978 3100)
2(1979 3101)
2(2046 3102)
2(2047 3103)
3(2016 2048 3104)
3(2015 2049 3105)
2(2050 3106)
3(929 2019 2051)
4(2020 1986 2018 2052)
3(2019 2053 3109)
3(2022 2054 3110)
4(2021 2023 2055 3111)
4(2022 2024 2056 3112)
3(2023 2057 3113)
3(2026 2058 3114)
3(2025 2059 3115)
2(2060 3116)
3(2029 2061 3117)
3(2028 2062 3118)
3(2031 2063 3119)
3(2030 2064 3120)
2(2065 3121)
3(2034 2066 3122)
3(2033 2067 3123)
3(2036 2068 3124)
4(2035 2037 2069 3125)
4(2036 2038 2070 3126)
3(2037 2071 3127)
3(2040 2072 3128)
4(2007 2039 2041 2073)
3(952 2040 2074)
2(2075 3131)
3(2044 2076 3132)
3(2043 2077 3133)
2(2078 3134)
2(2013 3135)