/*--------------------------------*- C++ -*----------------------------------*\
| =========                 |                                                 |
| \\      /  F ield         | OpenFOAM: The Open Source CFD Toolbox           |
|  \\    /   O peration     | Version:  2.2.x                                 |
|   \\  /    A nd           | Web:      www.OpenFOAM.org                      |
|    \\/     M anipulation  |                                                 |
\*---------------------------------------------------------------------------*/
FoamFile
{
    version     2.0;
    format      ascii;
    class       vectorField;
    location    "0.0002";
    object      angularMomentum;
}
// * * * * * * * * * * * * * * * * * * * * * * * * * * * * * * * * * * * * * //


2405
(
(-1.83999e-12 -8.00186e-28 -3.82075e-28)
(-1.99699e-12 0 0)
(2.26017e-12 0 0)
(5.76202e-12 0 0)
(2.79161e-12 0 0)
(1.39017e-12 0 0)
(1.47508e-12 0 0)
(-1.476e-12 0 0)
(-1.81108e-12 0 0)
(-1.78305e-12 0 0)
(-1.8064e-12 0 0)
(-2.21694e-12 0 0)
(-1.91844e-12 0 0)
(-4.18849e-12 0 0)
(-1.99942e-12 1.15821e-51 -1.86402e-42)
(-6.96635e-12 -5.56461e-28 -1.11812e-27)
(-4.91116e-12 0 0)
(-3.09365e-12 0 0)
(-3.64329e-12 0 0)
(6.8943e-12 0 0)
(3.85313e-12 -4.48005e-28 4.75533e-28)
(1.01819e-11 0 0)
(3.24054e-12 0 0)
(7.82624e-13 0 0)
(3.00102e-12 0 0)
(4.60535e-13 0 0)
(1.37785e-12 0 0)
(2.30017e-15 0 0)
(-3.80667e-13 0 0)
(-7.3439e-13 0 0)
(2.62252e-12 -3.92858e-28 3.5411e-28)
(2.06699e-12 0 0)
(2.32274e-12 0 0)
(3.86147e-12 0 0)
(2.87458e-12 0 0)
(-1.86764e-12 0 0)
(-2.71113e-12 0 0)
(-3.23718e-12 4.28435e-31 1.07071e-36)
(-6.84189e-13 0 0)
(-1.20749e-14 0 0)
(9.21341e-13 0 0)
(-6.07318e-14 0 0)
(6.73715e-14 0 0)
(4.47233e-13 0 0)
(-1.76517e-13 0 0)
(-4.39043e-13 0 0)
(4.42152e-13 0 0)
(2.14025e-13 0 0)
(-9.48872e-14 0 0)
(7.288e-13 0 0)
(2.6749e-13 0 0)
(3.36947e-12 0 0)
(-1.80892e-12 4.28579e-31 0)
(-1.53246e-12 0 0)
(1.79016e-12 0 0)
(-1.16642e-12 0 0)
(-3.6052e-13 0 0)
(-1.60347e-12 4.29895e-31 -1.4915e-45)
(1.19199e-11 0 0)
(-6.56309e-13 0 0)
(-3.40708e-12 0 0)
(-6.52625e-13 0 0)
(-6.83282e-13 0 0)
(2.4996e-13 0 0)
(-5.99449e-14 0 0)
(-9.36096e-13 0 0)
(-1.15512e-12 0 0)
(7.20662e-13 8.82407e-31 -3.06147e-45)
(2.32149e-12 0 0)
(-1.93263e-12 0 0)
(9.32e-13 0 0)
(8.11794e-13 0 0)
(-6.14744e-13 0 0)
(-1.71395e-12 0 0)
(-4.22738e-12 -9.15943e-28 -7.62036e-28)
(-3.3849e-13 0 0)
(-5.3159e-13 0 0)
(-9.44136e-14 0 0)
(-7.15052e-14 0 0)
(6.6712e-15 0 0)
(1.23489e-13 0 0)
(-1.34577e-12 0 0)
(-1.42293e-12 0 0)
(-1.28658e-13 0 0)
(-6.34707e-13 0 0)
(-8.73028e-14 0 0)
(3.66374e-13 0 0)
(0 0 0)
(-1.1333e-12 0 0)
(-2.16203e-12 0 0)
(8.96322e-12 0 0)
(-5.80862e-12 0 0)
(-1.51059e-11 0 0)
(4.497e-12 0 0)
(1.81971e-12 0 0)
(1.60927e-11 0 0)
(9.66824e-12 0 0)
(-9.45412e-13 0 0)
(3.10028e-12 0 0)
(3.39588e-12 0 0)
(1.46486e-12 0 0)
(4.06739e-12 0 0)
(2.53077e-12 0 0)
(1.57888e-12 0 0)
(1.31924e-12 0 0)
(3.52284e-12 0 0)
(2.94044e-12 0 0)
(2.67179e-12 0 0)
(-2.20464e-12 0 0)
(-3.22446e-12 0 0)
(-1.08338e-12 0 0)
(7.41195e-15 -2.64086e-34 1.31977e-39)
(0 0 0)
(0 0 0)
(2.33815e-15 0 0)
(2.33815e-15 0 0)
(0 0 0)
(0 0 0)
(0 0 0)
(-1.73409e-15 0 0)
(-1.73409e-15 0 0)
(-2.26607e-15 0 0)
(-3.99654e-15 0 0)
(-2.20084e-14 0 0)
(-2.20084e-14 0 0)
(-7.113e-15 0 0)
(1.01345e-14 0 0)
(0 0 0)
(-3.75048e-15 0 0)
(-3.49278e-14 0 0)
(0 0 0)
(-2.48019e-15 0 0)
(-2.48019e-15 0 0)
(-1.5422e-12 0 0)
(0 0 0)
(1.67641e-14 0 0)
(4.05623e-15 0 0)
(-2.46376e-14 0 0)
(0 0 0)
(7.6246e-15 0 0)
(-4.13429e-15 0 0)
(0 0 0)
(0 0 0)
(0 0 0)
(0 0 0)
(-1.73185e-14 0 0)
(-1.73185e-14 0 0)
(0 0 0)
(-1.56911e-14 0 0)
(-2.92568e-14 0 0)
(-1.35657e-14 0 0)
(8.07683e-16 0 0)
(8.07683e-16 0 0)
(0 0 0)
(0 0 0)
(0 0 0)
(-2.39317e-15 0 0)
(-2.39317e-15 0 0)
(-4.0719e-15 0 0)
(-4.0719e-15 0 0)
(-1.84091e-14 0 0)
(-1.84091e-14 0 0)
(-4.92233e-15 0 0)
(-4.92233e-15 0 0)
(0 0 0)
(3.11773e-14 0 0)
(0 0 0)
(0 0 0)
(1.23304e-14 0 0)
(1.23304e-14 0 0)
(-9.31651e-13 0 0)
(0 0 0)
(1.70879e-14 0 0)
(1.70879e-14 0 0)
(0 0 0)
(0 0 0)
(8.8048e-15 0 0)
(8.8048e-15 0 0)
(0 0 0)
(0 0 0)
(0 0 0)
(0 0 0)
(-1.62163e-14 0 0)
(-1.62163e-14 0 0)
(0 0 0)
(0 0 0)
(7.79793e-15 0 0)
(0 0 0)
(-1.80822e-14 0 0)
(-8.87611e-15 0 0)
(-1.07091e-14 0 0)
(-1.93218e-14 0 0)
(0 0 0)
(-2.86942e-15 0 0)
(5.16717e-14 0 0)
(1.01829e-13 0 0)
(-4.22679e-15 0 0)
(-1.41955e-14 0 0)
(3.62536e-13 0 0)
(8.67751e-16 0 0)
(4.66043e-13 0 0)
(1.84523e-14 0 0)
(-8.51769e-15 0 0)
(-1.65178e-13 0 0)
(-1.99996e-13 0 0)
(-4.21115e-13 0 0)
(1.34297e-14 0 0)
(0 0 0)
(-1.47595e-14 0 0)
(-5.30344e-13 0 0)
(-4.30809e-13 0 0)
(-7.30912e-15 0 0)
(0 0 0)
(7.13602e-15 0 0)
(-9.4598e-15 0 0)
(-4.21937e-13 0 0)
(-8.87084e-15 0 0)
(0 0 0)
(-8.42931e-14 0 0)
(-1.36571e-13 0 0)
(-1.20741e-13 0 0)
(-1.35653e-13 0 0)
(-1.05203e-15 0 0)
(1.83453e-14 0 0)
(3.20692e-13 0 0)
(-2.20283e-13 0 0)
(-5.43833e-14 0 0)
(-5.32066e-14 0 0)
(-6.59088e-14 0 0)
(-2.17957e-13 0 0)
(-1.16989e-12 0 0)
(1.92334e-13 0 0)
(2.05979e-13 0 0)
(-6.2032e-15 0 0)
(5.11638e-14 0 0)
(5.20807e-13 0 0)
(1.53311e-13 0 0)
(6.02706e-13 0 0)
(-1.16864e-13 0 0)
(-7.16594e-13 0 0)
(1.73932e-13 0 0)
(-7.00593e-13 0 0)
(-8.20005e-13 0 0)
(1.67278e-14 0 0)
(-3.0418e-13 0 0)
(1.09112e-13 0 0)
(-7.95729e-13 0 0)
(-5.96192e-13 0 0)
(-3.9117e-14 0 0)
(0 0 0)
(-8.64674e-14 0 0)
(-2.18981e-13 0 0)
(-6.85396e-13 0 0)
(1.97954e-12 0 0)
(-1.26913e-12 0 0)
(-2.97352e-12 0 0)
(-2.69069e-13 0 0)
(-2.97213e-13 0 0)
(-8.80588e-13 0 0)
(-4.15462e-14 0 0)
(-1.85185e-13 0 0)
(1.81358e-13 0 0)
(-1.46628e-13 0 0)
(1.0978e-13 0 0)
(1.13547e-13 0 0)
(-1.05912e-13 0 0)
(8.90177e-13 0 0)
(0 0 0)
(2.42105e-13 0 0)
(2.06887e-13 0 0)
(-2.00086e-13 0 0)
(-9.73861e-13 0 0)
(-6.66491e-13 0 0)
(7.40688e-13 0 0)
(7.28745e-13 0 0)
(-7.40185e-13 0 0)
(-2.72104e-12 0 0)
(-1.09683e-12 0 0)
(-3.57501e-13 0 0)
(-2.13031e-13 0 0)
(3.17185e-12 0 0)
(2.17281e-12 0 0)
(-5.94842e-13 0 0)
(1.81664e-13 0 0)
(2.92446e-13 0 0)
(6.72126e-13 0 0)
(8.16549e-13 0 0)
(8.72038e-14 0 0)
(-1.7115e-13 0 0)
(-2.41843e-13 0 0)
(6.24541e-13 0 0)
(-2.40378e-12 0 0)
(-2.66584e-12 0 0)
(-1.18206e-12 0 0)
(-1.23459e-12 0 0)
(-7.40045e-13 0 0)
(2.34585e-17 0 0)
(-4.50388e-16 0 0)
(0 0 0)
(5.71314e-16 0 0)
(5.00241e-16 0 0)
(4.17599e-16 0 0)
(9.11975e-16 0 0)
(5.89898e-16 0 0)
(7.16827e-17 0 0)
(2.61865e-16 0 0)
(-1.85009e-15 0 0)
(-2.35916e-15 0 0)
(-1.66341e-14 0 0)
(-1.58803e-14 0 0)
(6.8332e-15 0 0)
(4.09067e-15 0 0)
(-5.26161e-16 0 0)
(-4.82851e-14 0 0)
(-5.3363e-14 0 0)
(-4.71457e-15 0 0)
(1.05442e-14 0 0)
(6.40694e-15 0 0)
(-5.10375e-15 0 0)
(-4.7542e-15 0 0)
(1.26578e-14 0 0)
(1.4593e-14 0 0)
(-2.16921e-15 0 0)
(-8.50272e-14 0 0)
(-7.41728e-16 0 0)
(-8.81176e-16 0 0)
(-5.79282e-15 0 0)
(-8.73377e-15 0 0)
(-9.23389e-15 0 0)
(-6.58831e-15 0 0)
(-6.89009e-14 0 0)
(-6.39621e-14 0 0)
(2.92009e-15 0 0)
(-5.15849e-15 0 0)
(-8.86971e-14 0 0)
(-8.32927e-14 0 0)
(1.98273e-16 0 0)
(1.27201e-16 0 0)
(4.17599e-16 0 0)
(9.11975e-16 0 0)
(5.89898e-16 0 0)
(-4.72374e-16 0 0)
(-2.82191e-16 0 0)
(-1.75052e-15 0 0)
(-2.25959e-15 0 0)
(-1.27085e-14 0 0)
(-1.19547e-14 0 0)
(6.66309e-15 0 0)
(3.92056e-15 0 0)
(-5.26161e-16 0 0)
(-5.54951e-15 0 0)
(-1.06274e-14 0 0)
(-4.71457e-15 0 0)
(1.10933e-14 0 0)
(1.26722e-14 0 0)
(-5.10375e-15 0 0)
(-4.7542e-15 0 0)
(9.59771e-15 0 0)
(1.15329e-14 0 0)
(-2.16921e-15 0 0)
(-6.96705e-15 0 0)
(-4.61457e-16 0 0)
(-6.00905e-16 0 0)
(-5.79282e-15 0 0)
(-8.73377e-15 0 0)
(-9.23389e-15 0 0)
(-6.58831e-15 0 0)
(-5.40926e-14 0 0)
(-4.91538e-14 0 0)
(2.92009e-15 0 0)
(-5.5488e-13 0 0)
(-9.78488e-15 0 0)
(0 0 0)
(-2.98603e-16 0 0)
(1.98025e-16 0 0)
(2.44154e-15 0 0)
(4.42351e-15 0 0)
(9.80818e-14 0 0)
(1.98676e-17 0 0)
(-7.64249e-16 0 0)
(-2.59371e-15 0 0)
(-2.55896e-15 0 0)
(-1.36493e-14 0 0)
(-8.16543e-15 0 0)
(4.15882e-15 0 0)
(4.45504e-15 0 0)
(2.62603e-16 0 0)
(1.06024e-14 0 0)
(-1.7986e-14 0 0)
(-2.37695e-15 0 0)
(1.0591e-14 0 0)
(1.16093e-14 0 0)
(-1.16368e-15 0 0)
(-1.01213e-15 0 0)
(-3.23498e-14 0 0)
(-8.14874e-15 0 0)
(-8.90887e-16 0 0)
(-4.20136e-16 0 0)
(2.2237e-15 0 0)
(1.1522e-15 0 0)
(-5.52557e-15 0 0)
(-9.65668e-15 0 0)
(-7.73699e-15 0 0)
(-7.79194e-15 0 0)
(-3.91273e-14 0 0)
(-3.30138e-14 0 0)
(5.17895e-15 0 0)
(-6.77605e-13 0 0)
(-1.53176e-14 0 0)
(1.19245e-13 0 0)
(-4.9865e-16 0 0)
(-2.02158e-18 0 0)
(2.44154e-15 0 0)
(4.42351e-15 0 0)
(9.80818e-14 0 0)
(3.41087e-16 0 0)
(-4.4303e-16 0 0)
(-2.35499e-15 0 0)
(-2.32024e-15 0 0)
(-4.84829e-15 0 0)
(6.35583e-16 0 0)
(5.26228e-15 0 0)
(5.5585e-15 0 0)
(2.62603e-16 0 0)
(3.64344e-13 0 0)
(-3.9936e-13 0 0)
(-2.20807e-15 0 0)
(1.03533e-14 0 0)
(1.13716e-14 0 0)
(-1.16368e-15 0 0)
(-1.28049e-15 0 0)
(-1.96392e-14 0 0)
(-4.35668e-16 0 0)
(-8.90887e-16 0 0)
(-4.20136e-16 0 0)
(1.0562e-15 0 0)
(-1.53061e-17 0 0)
(-5.52557e-15 0 0)
(-9.65668e-15 0 0)
(-7.73699e-15 0 0)
(-7.79194e-15 0 0)
(-5.25863e-14 0 0)
(-4.64728e-14 0 0)
(5.17895e-15 0 0)
(-1.91235e-14 0 0)
(-1.64368e-12 0 0)
(-1.47412e-12 0 0)
(1.78482e-14 0 0)
(9.91391e-17 0 0)
(8.1857e-16 0 0)
(-1.6637e-15 0 0)
(2.45588e-12 0 0)
(-1.08185e-15 0 0)
(-5.32588e-16 0 0)
(-1.7937e-15 0 0)
(-1.69616e-15 0 0)
(2.00243e-15 0 0)
(1.68047e-15 0 0)
(4.84032e-15 0 0)
(5.00694e-15 0 0)
(-1.72548e-13 0 0)
(4.69429e-13 0 0)
(-9.51476e-14 0 0)
(-4.13228e-15 0 0)
(8.95189e-15 0 0)
(9.39034e-15 0 0)
(-1.37128e-15 0 0)
(-6.93359e-16 0 0)
(-2.60224e-13 0 0)
(-2.83648e-13 0 0)
(-1.79867e-14 0 0)
(-1.031e-15 0 0)
(1.7314e-16 0 0)
(-6.95917e-15 0 0)
(-1.02246e-14 0 0)
(-6.94934e-15 0 0)
(-7.96844e-15 0 0)
(-4.38544e-15 0 0)
(-4.42826e-14 0 0)
(-4.55199e-14 0 0)
(-4.01089e-15 0 0)
(0 0 0)
(0 0 0)
(1.676e-14 0 0)
(1.11193e-16 0 0)
(-6.51495e-17 0 0)
(8.1857e-16 0 0)
(-1.6637e-15 0 0)
(2.47556e-12 0 0)
(-6.61799e-16 0 0)
(-1.12537e-16 0 0)
(-1.33275e-15 0 0)
(-1.23521e-15 0 0)
(1.27831e-15 0 0)
(9.56348e-16 0 0)
(4.75311e-15 0 0)
(4.91973e-15 0 0)
(-1.84046e-15 0 0)
(1.93757e-14 0 0)
(1.93757e-14 0 0)
(-4.13228e-15 0 0)
(6.22013e-15 0 0)
(6.65859e-15 0 0)
(-1.37128e-15 0 0)
(-6.93359e-16 0 0)
(-1.02972e-14 0 0)
(-1.03816e-14 0 0)
(8.67691e-17 0 0)
(-1.031e-15 0 0)
(-2.69463e-16 0 0)
(-7.40177e-15 0 0)
(-1.02246e-14 0 0)
(-6.94934e-15 0 0)
(-7.96844e-15 0 0)
(-4.38544e-15 0 0)
(-4.00948e-14 0 0)
(-4.13322e-14 0 0)
(-4.01089e-15 0 0)
(5.23917e-15 0 0)
(5.22832e-15 0 0)
(3.10989e-15 0 0)
(3.8523e-15 0 0)
(3.97547e-15 0 0)
(-7.28843e-15 0 0)
(-7.28854e-15 0 0)
(1.48579e-14 0 0)
(-5.64936e-15 0 0)
(-5.78707e-15 0 0)
(-1.94327e-15 0 0)
(-2.01843e-15 0 0)
(-1.20814e-15 0 0)
(-2.26863e-15 0 0)
(3.89493e-15 0 0)
(-1.46155e-15 0 0)
(-7.47147e-15 0 0)
(6.52987e-15 0 0)
(-4.22976e-15 0 0)
(-1.3232e-14 0 0)
(-2.45013e-14 0 0)
(-2.18923e-14 0 0)
(-2.02208e-14 0 0)
(2.34118e-15 0 0)
(-5.6624e-15 0 0)
(1.20047e-14 0 0)
(1.9168e-14 0 0)
(-5.29651e-15 0 0)
(-4.19485e-15 0 0)
(-2.82695e-15 0 0)
(-3.90782e-14 0 0)
(-3.8143e-14 0 0)
(-2.73991e-14 0 0)
(-1.29e-14 0 0)
(-3.68641e-14 0 0)
(-1.86877e-14 0 0)
(6.4459e-15 0 0)
(5.23917e-15 0 0)
(2.47853e-14 0 0)
(3.20661e-15 0 0)
(5.51157e-15 0 0)
(4.82616e-15 0 0)
(-7.90174e-15 0 0)
(-8.50095e-15 0 0)
(-8.1622e-15 0 0)
(-7.4479e-15 0 0)
(-6.90392e-15 0 0)
(-2.39614e-15 0 0)
(-3.6007e-14 0 0)
(-2.06927e-15 0 0)
(-4.64383e-15 0 0)
(2.77804e-15 0 0)
(-3.69342e-15 0 0)
(-1.14222e-14 0 0)
(-7.57221e-15 0 0)
(-2.71304e-13 0 0)
(-1.90806e-14 0 0)
(-3.81945e-14 0 0)
(-4.36297e-14 0 0)
(-2.24079e-14 0 0)
(4.04337e-15 0 0)
(-1.3643e-14 0 0)
(1.07536e-14 0 0)
(3.24095e-14 0 0)
(-6.29511e-15 0 0)
(-1.07084e-14 0 0)
(-1.27845e-14 0 0)
(-6.86121e-14 0 0)
(-8.5538e-14 0 0)
(-3.61096e-14 0 0)
(-2.34154e-14 0 0)
(-2.76302e-14 0 0)
(-7.12902e-15 0 0)
(1.1715e-14 0 0)
(-8.22366e-14 0 0)
(1.32784e-13 0 0)
(9.67217e-17 0 0)
(9.1896e-16 0 0)
(1.10379e-16 0 0)
(-6.13312e-16 0 0)
(-1.21241e-15 0 0)
(-3.34092e-15 0 0)
(-2.19132e-15 0 0)
(-1.50962e-15 0 0)
(-2.69631e-15 0 0)
(-2.05375e-13 0 0)
(-9.45308e-15 0 0)
(-2.72092e-15 0 0)
(4.22769e-15 0 0)
(3.11272e-15 0 0)
(-3.95076e-15 0 0)
(-2.42299e-15 0 0)
(-6.60302e-13 0 0)
(-3.16241e-15 0 0)
(-8.10542e-15 0 0)
(-1.61496e-14 0 0)
(-2.18703e-15 0 0)
(1.7022e-15 0 0)
(-2.70123e-14 0 0)
(-2.02828e-14 0 0)
(1.32415e-14 0 0)
(-9.98604e-16 0 0)
(-7.11802e-15 0 0)
(-1.05621e-14 0 0)
(-2.95339e-14 0 0)
(-4.7395e-14 0 0)
(-8.71055e-15 0 0)
(-1.05155e-14 0 0)
(-1.34504e-14 0 0)
(-1.11256e-14 0 0)
(5.26911e-15 0 0)
(-7.60072e-14 0 0)
(1.01785e-13 0 0)
(-3.30377e-14 0 0)
(-1.37062e-14 0 0)
(-9.59963e-16 0 0)
(-1.01114e-16 0 0)
(3.7874e-16 0 0)
(-2.71728e-16 0 0)
(-3.68893e-17 0 0)
(-7.55765e-16 0 0)
(-2.12955e-16 0 0)
(-7.32162e-13 0 0)
(-9.39283e-13 0 0)
(-3.67678e-13 0 0)
(4.49035e-15 0 0)
(4.42761e-15 0 0)
(2.65893e-14 0 0)
(-9.46039e-13 0 0)
(-1.37581e-12 0 0)
(-8.63679e-15 0 0)
(-7.33503e-15 0 0)
(1.18591e-14 0 0)
(-3.65577e-15 0 0)
(-1.51065e-15 0 0)
(-2.90821e-14 0 0)
(-2.6035e-14 0 0)
(-7.7381e-15 0 0)
(-1.52772e-15 0 0)
(-1.4148e-14 0 0)
(-2.59268e-14 0 0)
(-2.39298e-14 0 0)
(2.16866e-15 0 0)
(-2.08924e-14 0 0)
(-6.87506e-15 0 0)
(-8.82843e-15 0 0)
(-2.19299e-15 0 0)
(-3.73386e-15 0 0)
(3.17602e-16 0 0)
(0 0 0)
(-2.27695e-15 0 0)
(-1.88237e-15 0 0)
(-9.97921e-16 0 0)
(-1.01114e-16 0 0)
(3.7874e-16 0 0)
(-2.71728e-16 0 0)
(5.78349e-16 0 0)
(-1.40527e-16 0 0)
(-1.64343e-15 0 0)
(-1.43047e-15 0 0)
(-9.71862e-15 0 0)
(-9.37882e-15 0 0)
(4.80591e-15 0 0)
(4.74317e-15 0 0)
(-1.51727e-15 0 0)
(-1.16283e-14 0 0)
(-5.70095e-15 0 0)
(-8.63679e-15 0 0)
(-5.4544e-15 0 0)
(1.37398e-14 0 0)
(-3.65577e-15 0 0)
(-1.51065e-15 0 0)
(-3.344e-14 0 0)
(-3.03929e-14 0 0)
(-7.7381e-15 0 0)
(-1.52772e-15 0 0)
(-1.98473e-14 0 0)
(-3.16261e-14 0 0)
(-2.39298e-14 0 0)
(2.16866e-15 0 0)
(-2.08924e-14 0 0)
(-6.87506e-15 0 0)
(-5.84244e-15 0 0)
(7.92995e-16 0 0)
(-3.73386e-15 0 0)
(0 0 0)
(0 0 0)
(0 0 0)
(-9.84188e-16 0 0)
(-9.84188e-16 0 0)
(0 0 0)
(0 0 0)
(0 0 0)
(5.66891e-16 0 0)
(5.66891e-16 0 0)
(-1.64643e-15 0 0)
(-1.64643e-15 0 0)
(-1.08452e-14 0 0)
(-1.08452e-14 0 0)
(6.12744e-15 0 0)
(6.12744e-15 0 0)
(0 0 0)
(-1.07221e-14 0 0)
(-1.07221e-14 0 0)
(0 0 0)
(7.44833e-15 0 0)
(7.44833e-15 0 0)
(0 0 0)
(0 0 0)
(-2.76885e-14 0 0)
(-2.76885e-14 0 0)
(0 0 0)
(0 0 0)
(-1.68424e-14 0 0)
(-1.68424e-14 0 0)
(0 0 0)
(0 0 0)
(0 0 0)
(0 0 0)
(4.34822e-15 0 0)
(4.34822e-15 0 0)
(0 0 0)
(-1.76884e-15 0 0)
(-1.15154e-13 0 0)
(4.91735e-14 0 0)
(-6.62334e-14 0 0)
(-4.14668e-14 0 0)
(7.1473e-14 0 0)
(1.52297e-13 0 0)
(0 0 0)
(2.76861e-15 0 0)
(1.60534e-15 0 0)
(5.98902e-15 0 0)
(2.40765e-14 0 0)
(-2.85907e-15 0 0)
(-1.03443e-15 0 0)
(1.3395e-14 0 0)
(1.63776e-14 0 0)
(-1.06505e-15 0 0)
(-2.97577e-14 0 0)
(6.979e-14 0 0)
(8.91028e-14 0 0)
(-2.33006e-13 0 0)
(-4.46683e-13 0 0)
(0 0 0)
(4.29144e-13 0 0)
(3.19315e-13 0 0)
(1.9085e-13 0 0)
(2.61403e-13 0 0)
(0 0 0)
(-5.53409e-13 0 0)
(-3.61136e-13 0 0)
(-2.82328e-14 0 0)
(-6.27014e-14 0 0)
(0 0 0)
(-2.77848e-14 0 0)
(1.40677e-14 0 0)
(4.85704e-13 0 0)
(9.36439e-13 0 0)
(-2.8573e-12 0 0)
(-8.33591e-13 0 0)
(1.77332e-12 0 0)
(-3.67595e-14 0 0)
(-2.38966e-13 0 0)
(-3.96071e-14 0 0)
(2.46192e-12 0 0)
(2.37641e-13 0 0)
(2.42257e-15 0 0)
(1.25931e-15 0 0)
(-9.6023e-14 0 0)
(-6.82696e-13 0 0)
(-3.65978e-12 0 0)
(1.82464e-15 0 0)
(1.97591e-15 0 0)
(3.81874e-13 0 0)
(-1.42363e-13 0 0)
(-4.89847e-12 0 0)
(8.02268e-13 0 0)
(7.23964e-13 0 0)
(8.31977e-14 0 0)
(-3.19793e-12 0 0)
(-2.3075e-12 0 0)
(1.7557e-12 0 0)
(9.07996e-13 0 0)
(7.60964e-13 0 0)
(9.96423e-13 0 0)
(-1.19171e-12 0 0)
(-3.79137e-12 0 0)
(-3.12962e-15 0 0)
(-2.82328e-14 0 0)
(-6.27014e-14 0 0)
(-4.94813e-12 0 0)
(-2.08885e-12 0 0)
(-1.17959e-14 0 0)
(1.86258e-12 0 0)
(7.88664e-12 0 0)
(0 0 0)
(-3.58674e-13 0 0)
(1.29926e-12 0 0)
(-3.98282e-13 0 0)
(4.64699e-13 0 0)
(5.51007e-13 0 0)
(1.49319e-12 0 0)
(3.36028e-13 0 0)
(9.08069e-13 0 0)
(-4.61018e-13 0 0)
(-5.5988e-13 0 0)
(-4.69098e-13 0 0)
(-4.09361e-12 0 0)
(-8.88766e-13 0 0)
(-1.12316e-13 0 0)
(4.87691e-13 0 0)
(0 0 0)
(-6.7064e-12 0 0)
(-1.23232e-12 0 0)
(7.102e-13 0 0)
(3.83345e-13 0 0)
(-1.23931e-12 0 0)
(1.36927e-12 0 0)
(-5.4322e-12 0 0)
(8.29537e-13 0 0)
(8.01538e-13 0 0)
(4.28664e-12 0 0)
(-6.55098e-12 0 0)
(-1.21424e-11 0 0)
(-5.94809e-12 0 0)
(-7.30104e-12 0 0)
(3.61272e-12 0 0)
(1.67755e-12 0 0)
(6.39504e-13 0 0)
(7.23258e-12 0 0)
(8.01036e-12 0 0)
(6.958e-12 0 0)
(-2.76472e-12 0 0)
(-5.79499e-15 0 0)
(0 0 0)
(8.3196e-16 0 0)
(8.3196e-16 0 0)
(0 0 0)
(0 0 0)
(0 0 0)
(-2.24597e-15 0 0)
(2.92227e-16 0 0)
(-2.91715e-15 0 0)
(-2.91715e-15 0 0)
(-2.30447e-14 0 0)
(-2.11627e-14 0 0)
(1.49274e-14 0 0)
(1.26156e-14 0 0)
(0 0 0)
(-7.93101e-15 0 0)
(-7.93101e-15 0 0)
(0 0 0)
(-1.37946e-14 0 0)
(-1.37946e-14 0 0)
(6.45645e-12 0 0)
(-2.47292e-12 0 0)
(1.94588e-14 0 0)
(1.94588e-14 0 0)
(0 0 0)
(1.15148e-11 0 0)
(-2.51406e-14 0 0)
(-2.51406e-14 0 0)
(2.04025e-15 0 0)
(3.33034e-14 0 0)
(0 0 0)
(0 0 0)
(3.91132e-14 0 0)
(4.58521e-14 0 0)
(0 0 0)
(-6.81658e-13 -1.1781e-29 -7.47939e-31)
(-6.44857e-13 0 0)
(6.67402e-15 0 0)
(1.19771e-14 0 0)
(1.24056e-14 0 0)
(-2.1632e-14 0 0)
(-2.15101e-14 0 0)
(-1.21463e-14 0 0)
(-1.28693e-14 0 0)
(-1.28421e-14 0 0)
(-1.3521e-15 0 0)
(-1.32545e-15 0 0)
(-2.53938e-14 0 0)
(-1.80589e-14 0 0)
(2.14133e-14 0 0)
(2.20618e-14 0 0)
(8.7883e-15 0 0)
(1.05635e-14 0 0)
(2.65981e-15 0 0)
(1.58851e-14 0 0)
(-1.09709e-14 0 0)
(-1.02634e-14 0 0)
(1.99669e-14 0 0)
(-1.40853e-14 0 0)
(5.08797e-15 0 0)
(2.80755e-14 0 0)
(8.35448e-15 0 0)
(1.08262e-11 0 0)
(-1.76775e-15 0 0)
(3.49162e-16 0 0)
(4.87585e-14 0 0)
(5.00466e-14 0 0)
(3.52046e-14 0 0)
(1.80065e-14 0 0)
(6.25456e-14 0 0)
(2.39493e-14 0 0)
(-1.35947e-14 0 0)
(1.75283e-14 0 0)
(2.62346e-13 0 0)
(6.67402e-15 0 0)
(3.0602e-13 0 0)
(1.65853e-14 0 0)
(-2.1632e-14 0 0)
(-2.15101e-14 0 0)
(-1.21463e-14 0 0)
(-1.28666e-14 0 0)
(-1.28393e-14 0 0)
(-1.44581e-15 0 0)
(-1.41917e-15 0 0)
(-9.19004e-15 0 0)
(-1.85515e-15 0 0)
(2.41427e-14 0 0)
(2.47912e-14 0 0)
(8.7883e-15 0 0)
(-2.15691e-14 0 0)
(1.48053e-13 0 0)
(3.3923e-13 0 0)
(1.26886e-14 0 0)
(-3.96937e-13 0 0)
(1.99669e-14 0 0)
(-1.40853e-14 0 0)
(2.14816e-14 0 0)
(2.81414e-13 0 0)
(6.75544e-13 0 0)
(-6.88598e-13 0 0)
(-2.37554e-16 0 0)
(1.87936e-15 0 0)
(5.04038e-13 0 0)
(1.21507e-13 0 0)
(3.52046e-14 0 0)
(1.80065e-14 0 0)
(2.36558e-13 0 0)
(5.81926e-13 0 0)
(9.26513e-13 0 0)
(-6.20985e-15 0 0)
(4.04632e-13 0 0)
(-2.88974e-12 0 0)
(-2.06283e-12 0 0)
(-3.55041e-13 0 0)
(0 0 0)
(0 0 0)
(0 0 0)
(1.82437e-15 0 0)
(1.82437e-15 0 0)
(-3.42997e-15 0 0)
(-1.6565e-13 0 0)
(1.11879e-12 0 0)
(0 0 0)
(1.86302e-14 0 0)
(1.86302e-14 0 0)
(0 0 0)
(3.47023e-12 0 0)
(1.56346e-12 0 0)
(7.08979e-13 0 0)
(3.06385e-13 0 0)
(-1.13835e-12 0 0)
(-2.34426e-12 0 0)
(-9.55976e-13 0 0)
(0 0 0)
(-1.93965e-12 0 0)
(3.86156e-12 0 0)
(2.30228e-12 0 0)
(-1.2776e-12 0 0)
(-2.22325e-14 0 0)
(1.23103e-12 0 0)
(4.45966e-12 0 0)
(5.38128e-13 0 0)
(-9.35645e-13 0 0)
(6.58905e-13 0 0)
(1.7824e-12 0 0)
(6.00808e-12 0 0)
(-1.48116e-12 0 0)
(2.18849e-12 0 0)
(1.73031e-12 0 0)
(2.1553e-13 0 0)
(7.91902e-13 0 0)
(1.01836e-12 0 0)
(-1.39814e-13 0 0)
(0 0 0)
(1.70346e-15 0 0)
(1.70346e-15 0 0)
(-3.51674e-15 0 0)
(-3.51674e-15 0 0)
(9.01318e-13 0 0)
(-4.1746e-13 0 0)
(-2.56942e-14 0 0)
(-3.13921e-13 0 0)
(-4.1314e-13 0 0)
(3.0432e-12 0 0)
(1.05991e-12 0 0)
(5.9284e-13 0 0)
(5.2292e-13 0 0)
(-1.39062e-12 0 0)
(-2.07326e-12 0 0)
(1.3797e-12 0 0)
(2.90388e-12 0 0)
(-6.77168e-13 0 0)
(4.69633e-12 0 0)
(5.09342e-12 0 0)
(-3.2922e-13 0 0)
(-9.59078e-12 0 0)
(-8.42049e-12 0 0)
(1.26666e-12 0 0)
(-1.70442e-12 0 0)
(0 0 0)
(4.98578e-12 0 0)
(5.74203e-12 0 0)
(5.05347e-12 0 0)
(1.41487e-16 0 0)
(-7.52412e-15 0 0)
(0 0 0)
(-2.62789e-15 0 0)
(2.21846e-15 0 0)
(3.30675e-15 0 0)
(9.32067e-15 0 0)
(-8.25673e-16 0 0)
(5.91199e-15 0 0)
(3.06274e-15 0 0)
(-1.78582e-15 0 0)
(-2.96175e-16 0 0)
(-1.11824e-14 0 0)
(-2.10657e-15 0 0)
(2.78887e-14 0 0)
(2.73519e-14 0 0)
(1.73953e-14 0 0)
(-2.93207e-14 0 0)
(-2.16334e-14 0 0)
(1.55261e-14 0 0)
(-1.29021e-14 0 0)
(-1.78112e-15 0 0)
(9.14732e-15 0 0)
(-1.27551e-15 0 0)
(5.62035e-14 0 0)
(4.98456e-14 0 0)
(-3.14458e-14 0 0)
(-1.93207e-15 0 0)
(-1.25943e-14 0 0)
(1.8216e-14 0 0)
(3.62194e-14 0 0)
(5.32463e-14 0 0)
(3.38232e-14 0 0)
(3.3849e-14 0 0)
(1.55732e-13 0 0)
(1.25673e-13 0 0)
(-2.74876e-14 0 0)
(7.3092e-14 0 0)
(7.39304e-14 0 0)
(4.76072e-15 0 0)
(-5.22014e-15 0 0)
(-3.73795e-16 0 0)
(3.90635e-15 0 0)
(9.32067e-15 0 0)
(-8.25673e-16 0 0)
(3.98319e-15 0 0)
(1.13395e-15 0 0)
(-2.72533e-15 0 0)
(-1.23568e-15 0 0)
(-5.05831e-15 0 0)
(-3.25077e-15 0 0)
(2.59551e-14 0 0)
(2.54183e-14 0 0)
(9.31848e-15 0 0)
(-1.50342e-14 0 0)
(-7.3468e-15 0 0)
(1.55261e-14 0 0)
(-8.26903e-15 0 0)
(2.85199e-15 0 0)
(9.14732e-15 0 0)
(-1.27551e-15 0 0)
(2.88213e-14 0 0)
(1.34074e-14 0 0)
(-3.14458e-14 0 0)
(-1.93207e-15 0 0)
(-1.75742e-14 0 0)
(-9.31598e-15 0 0)
(3.62194e-14 0 0)
(5.32463e-14 0 0)
(3.38232e-14 0 0)
(3.3849e-14 0 0)
(1.07618e-13 0 0)
(7.75585e-14 0 0)
(-2.74876e-14 0 0)
(8.863e-13 0 0)
(8.89923e-13 0 0)
(-5.29311e-15 0 0)
(1.16751e-15 0 0)
(2.11829e-15 0 0)
(5.09065e-16 0 0)
(2.30645e-15 0 0)
(4.21186e-15 0 0)
(-1.04281e-15 0 0)
(2.28991e-16 0 0)
(8.30259e-16 0 0)
(3.68177e-15 0 0)
(-2.5343e-14 0 0)
(3.04687e-13 0 0)
(1.32734e-14 0 0)
(1.75931e-13 0 0)
(2.08283e-13 0 0)
(-1.42759e-14 0 0)
(-6.60804e-15 0 0)
(1.17083e-14 0 0)
(-1.1216e-14 0 0)
(2.42016e-15 0 0)
(0 0 0)
(2.9819e-13 0 0)
(2.05887e-13 0 0)
(-6.27847e-15 0 0)
(-3.9292e-14 0 0)
(0 0 0)
(-2.11669e-14 0 0)
(-1.02244e-14 0 0)
(2.81184e-14 0 0)
(1.13237e-14 0 0)
(0 0 0)
(1.10729e-12 0 0)
(7.17055e-13 0 0)
(1.27066e-13 0 0)
(-2.17017e-14 0 0)
(-2.41871e-14 0 0)
(6.08938e-14 0 0)
(-5.29311e-15 0 0)
(-2.56587e-15 0 0)
(-1.61509e-15 0 0)
(5.09065e-16 0 0)
(2.30645e-15 0 0)
(4.21186e-15 0 0)
(-6.92155e-16 0 0)
(5.79644e-16 0 0)
(2.34376e-15 0 0)
(5.19527e-15 0 0)
(4.35532e-13 0 0)
(2.58032e-13 0 0)
(2.8315e-13 0 0)
(1.32253e-12 0 0)
(1.74466e-12 0 0)
(-2.19717e-14 0 0)
(-1.43038e-14 0 0)
(1.17083e-14 0 0)
(-1.29978e-14 0 0)
(6.38368e-16 0 0)
(5.16955e-12 0 0)
(2.67317e-12 0 0)
(9.72432e-13 0 0)
(-1.68937e-14 0 0)
(6.84132e-12 0 0)
(1.42413e-11 0 0)
(-1.79802e-14 0 0)
(-7.03779e-15 0 0)
(-4.7684e-14 0 0)
(-1.59267e-12 0 0)
(9.62261e-12 0 0)
(2.86624e-12 0 0)
(8.85607e-13 0 0)
(-1.00199e-14 0 0)
(-2.17017e-14 0 0)
(-1.01044e-13 0 0)
(5.5102e-15 0 0)
(0 0 0)
(-3.87352e-15 0 0)
(-3.87352e-15 0 0)
(0 0 0)
(0 0 0)
(0 0 0)
(-3.2906e-15 0 0)
(-3.2906e-15 0 0)
(-6.07804e-14 0 0)
(-3.95359e-13 0 0)
(-2.55221e-13 0 0)
(-4.16918e-13 0 0)
(9.49869e-13 0 0)
(1.83494e-12 0 0)
(1.47294e-12 0 0)
(-1.13865e-12 0 0)
(-1.06665e-12 0 0)
(0 0 0)
(-7.40324e-13 0 0)
(-1.02285e-14 0 0)
(5.4723e-12 0 0)
(1.92057e-12 0 0)
(3.20922e-12 0 0)
(1.90304e-12 0 0)
(-5.53511e-13 0 0)
(7.25694e-12 0 0)
(-6.61769e-13 0 0)
(-1.2963e-11 0 0)
(-1.23502e-11 0 0)
(-2.26868e-12 0 0)
(8.65595e-12 0 0)
(1.58395e-12 0 0)
(3.49778e-12 0 0)
(3.20922e-12 0 0)
(-1.00849e-15 0 0)
(-3.87301e-17 0 0)
(0 0 0)
(0 0 0)
(-8.5988e-16 0 0)
(-8.5988e-16 0 0)
(0 0 0)
(0 0 0)
(0 0 0)
(-4.59446e-15 0 0)
(-4.59446e-15 0 0)
(-1.33559e-15 0 0)
(9.18554e-16 0 0)
(-1.20415e-14 0 0)
(-1.20415e-14 0 0)
(1.17656e-14 0 0)
(1.17656e-14 0 0)
(0 0 0)
(-1.66233e-14 0 0)
(-2.54026e-14 0 0)
(0 0 0)
(-1.57581e-14 0 0)
(-2.44267e-14 0 0)
(0 0 0)
(0 0 0)
(1.22153e-14 0 0)
(1.83137e-14 0 0)
(0 0 0)
(0 0 0)
(-9.38819e-15 0 0)
(2.46675e-15 0 0)
(0 0 0)
(0 0 0)
(0 0 0)
(0 0 0)
(1.77476e-13 0 0)
(1.80181e-13 0 0)
(0 0 0)
(-4.42631e-13 -4.13686e-31 -1.78883e-40)
(2.76391e-14 6.79856e-54 2.57897e-44)
(-1.11145e-14 0 0)
(-2.89203e-14 0 0)
(-2.68467e-14 0 0)
(1.09098e-14 0 0)
(1.52208e-14 0 0)
(1.44316e-14 0 0)
(1.15536e-14 0 0)
(1.12062e-14 0 0)
(4.15465e-15 0 0)
(4.99298e-15 0 0)
(-6.29288e-15 0 0)
(-6.05291e-15 0 0)
(9.45042e-15 0 0)
(1.04848e-14 0 0)
(-1.0516e-16 0 0)
(-2.00225e-14 0 0)
(-3.06969e-14 0 0)
(4.88852e-15 0 0)
(-2.98357e-14 0 0)
(-3.01938e-14 0 0)
(1.31316e-14 0 0)
(1.5242e-14 0 0)
(1.90153e-14 0 0)
(6.1617e-14 0 0)
(6.25395e-14 0 0)
(3.70842e-14 0 0)
(1.90521e-14 0 0)
(3.16254e-14 0 0)
(6.76191e-14 0 0)
(7.04607e-14 0 0)
(3.42164e-14 0 0)
(5.75792e-15 0 0)
(1.42517e-13 0 0)
(1.06363e-13 0 0)
(-1.79319e-14 0 0)
(-2.21046e-13 7.15885e-35 -1.78908e-40)
(-2.34145e-13 0 0)
(-1.11145e-14 0 0)
(-6.52064e-13 0 0)
(-3.24141e-13 0 0)
(1.09098e-14 0 0)
(1.52208e-14 0 0)
(1.44316e-14 0 0)
(2.23143e-13 0 0)
(1.12678e-13 0 0)
(3.19235e-14 0 0)
(9.43466e-14 0 0)
(-1.90203e-16 0 0)
(7.26661e-14 0 0)
(-2.52529e-15 0 0)
(-8.4713e-14 0 0)
(-9.71701e-14 0 0)
(1.21232e-14 0 0)
(-9.71199e-14 0 0)
(-9.26375e-14 0 0)
(-1.56895e-13 0 0)
(-2.12154e-13 0 0)
(-4.94145e-14 0 0)
(1.5242e-14 0 0)
(7.61194e-15 0 0)
(3.47679e-13 0 0)
(3.92021e-13 0 0)
(3.70842e-14 0 0)
(4.50234e-13 0 0)
(4.52129e-13 0 0)
(6.76191e-14 0 0)
(7.04607e-14 0 0)
(3.42164e-14 0 0)
(2.47068e-13 0 0)
(1.68864e-13 0 0)
(-4.97847e-13 0 0)
(-1.09711e-12 0 0)
(-3.57487e-15 0 0)
(-3.00435e-13 0 0)
(-3.24007e-12 0 0)
(-9.84855e-12 0 0)
(-6.82229e-13 0 0)
(0 0 0)
(0 0 0)
(-2.5377e-12 0 0)
(-7.77669e-13 0 0)
(-1.00959e-13 0 0)
(-2.23986e-13 0 0)
(2.10007e-13 0 0)
(-1.64187e-12 0 0)
(-9.33453e-14 0 0)
(-6.3572e-13 0 0)
(-6.40697e-13 0 0)
(-7.04787e-13 0 0)
(3.12859e-12 0 0)
(-5.34414e-13 0 0)
(-8.10979e-13 0 0)
(-7.77151e-13 0 0)
(-1.18602e-12 0 0)
(-3.5767e-12 0 0)
(4.83575e-14 0 0)
(0 0 0)
(2.5731e-12 0 0)
(2.99579e-12 0 0)
(2.11208e-12 0 0)
(1.30946e-12 0 0)
(3.5233e-12 0 0)
(0 0 0)
(0 0 0)
(-2.06799e-12 0 0)
(-4.01545e-12 0 0)
(-1.03121e-12 0 0)
(5.4344e-13 0 0)
(-4.42947e-12 0 0)
(-1.59326e-12 0 0)
(1.0489e-12 0 0)
(4.5497e-12 0 0)
(-2.57176e-12 0 0)
(-6.89664e-13 0 0)
(-5.42107e-13 0 0)
(3.62858e-13 0 0)
(5.14788e-12 0 0)
(6.0732e-12 0 0)
(-4.02894e-13 0 0)
(-4.49333e-13 0 0)
(4.52837e-13 0 0)
(-7.16953e-13 0 0)
(4.40972e-13 0 0)
(-1.2261e-12 0 0)
(-1.14713e-12 0 0)
(-1.28071e-12 0 0)
(2.63477e-12 0 0)
(-2.31558e-13 0 0)
(-3.44175e-13 0 0)
(-2.9973e-13 0 0)
(-1.73246e-12 0 0)
(-4.29396e-12 0 0)
(-4.84817e-13 0 0)
(-3.81955e-12 0 0)
(-1.05235e-12 0 0)
(1.44804e-12 0 0)
(-1.83821e-12 0 0)
(-1.78713e-12 0 0)
(3.37513e-12 0 0)
(-1.20516e-12 0 0)
(6.60016e-12 0 0)
(-2.32811e-12 0 0)
(-1.26102e-11 0 0)
(6.99716e-12 0 0)
(9.18675e-12 0 0)
(-3.36847e-12 0 0)
(-5.10149e-12 0 0)
(-1.63225e-12 0 0)
(0 0 0)
(1.46419e-15 0 0)
(1.46419e-15 0 0)
(-5.20725e-16 0 0)
(-7.76529e-15 0 0)
(0 0 0)
(3.37548e-16 0 0)
(3.37548e-16 0 0)
(-9.24151e-16 0 0)
(-9.24151e-16 0 0)
(6.98939e-15 0 0)
(6.98939e-15 0 0)
(-1.83389e-15 0 0)
(-1.83389e-15 0 0)
(0 0 0)
(8.91713e-15 0 0)
(8.91713e-15 0 0)
(0 0 0)
(3.3521e-16 0 0)
(3.3521e-16 0 0)
(0 0 0)
(0 0 0)
(-5.38793e-15 0 0)
(-1.56515e-14 0 0)
(0 0 0)
(0 0 0)
(-2.10462e-14 0 0)
(-2.10462e-14 0 0)
(1.36228e-14 0 0)
(-4.90733e-14 0 0)
(0 0 0)
(0 0 0)
(3.70377e-14 0 0)
(3.70377e-14 0 0)
(0 0 0)
(0 0 0)
(0 0 0)
(0 0 0)
(-6.27752e-15 0 0)
(-6.27752e-15 0 0)
(0 0 0)
(0 0 0)
(0 0 0)
(1.17785e-16 0 0)
(1.17785e-16 0 0)
(3.48511e-15 0 0)
(3.48511e-15 0 0)
(4.99744e-15 0 0)
(4.99744e-15 0 0)
(-9.28779e-16 0 0)
(-9.28779e-16 0 0)
(0 0 0)
(4.19939e-16 0 0)
(4.19939e-16 0 0)
(0 0 0)
(-3.17933e-15 0 0)
(-3.17933e-15 0 0)
(0 0 0)
(0 0 0)
(-7.51861e-15 0 0)
(-7.51861e-15 0 0)
(0 0 0)
(0 0 0)
(-2.55947e-14 0 0)
(-2.55947e-14 0 0)
(0 0 0)
(0 0 0)
(0 0 0)
(0 0 0)
(2.84592e-14 0 0)
(2.84592e-14 0 0)
(0 0 0)
(-1.37012e-13 0 0)
(-1.10547e-12 0 0)
(-9.68463e-13 0 0)
(-5.82407e-15 0 0)
(-5.82407e-15 0 0)
(0 0 0)
(0 0 0)
(0 0 0)
(3.47905e-16 0 0)
(3.47905e-16 0 0)
(3.39486e-15 0 0)
(3.39486e-15 0 0)
(4.66023e-15 0 0)
(4.66023e-15 0 0)
(-1.65641e-15 0 0)
(-1.65641e-15 0 0)
(0 0 0)
(-5.73999e-15 0 0)
(-5.73999e-15 0 0)
(0 0 0)
(-3.18944e-15 0 0)
(-3.18944e-15 0 0)
(0 0 0)
(0 0 0)
(3.64542e-14 0 0)
(4.05023e-14 0 0)
(3.14174e-13 0 0)
(0 0 0)
(-1.24647e-14 0 0)
(-2.35355e-13 0 0)
(0 0 0)
(0 0 0)
(0 0 0)
(0 0 0)
(1.5348e-14 0 0)
(1.5348e-14 0 0)
(0 0 0)
(0 0 0)
(0 0 0)
(0 0 0)
(-2.66027e-15 0 0)
(-2.66027e-15 0 0)
(0 0 0)
(0 0 0)
(0 0 0)
(4.79076e-17 0 0)
(4.79076e-17 0 0)
(1.21382e-15 0 0)
(1.21382e-15 0 0)
(5.75671e-15 0 0)
(5.75671e-15 0 0)
(-3.27213e-15 0 0)
(-3.27213e-15 0 0)
(0 0 0)
(-1.01183e-14 0 0)
(-1.01183e-14 0 0)
(0 0 0)
(-5.1349e-15 0 0)
(-5.1349e-15 0 0)
(0 0 0)
(0 0 0)
(0 0 0)
(-2.30258e-12 0 0)
(6.90731e-13 0 0)
(0 0 0)
(-1.28736e-12 0 0)
(-3.93141e-12 0 0)
(0 0 0)
(0 0 0)
(0 0 0)
(0 0 0)
(1.09559e-14 0 0)
(1.09559e-14 0 0)
(0 0 0)
(-2.41828e-12 4.7939e-28 -1.56691e-28)
(-1.85015e-13 0 0)
(4.10108e-15 0 0)
(-1.09172e-15 0 0)
(2.9982e-15 0 0)
(5.29549e-15 0 0)
(1.19583e-14 0 0)
(-1.22556e-15 0 0)
(-2.29981e-16 0 0)
(-2.03316e-15 0 0)
(-3.90648e-15 0 0)
(-3.1444e-15 0 0)
(9.9703e-15 0 0)
(7.87909e-15 0 0)
(-3.61695e-15 0 0)
(-3.84488e-15 0 0)
(1.53076e-15 0 0)
(-2.50793e-14 0 0)
(-2.40817e-14 0 0)
(4.40863e-15 0 0)
(-2.53668e-15 0 0)
(-5.02722e-15 0 0)
(-6.88678e-16 0 0)
(6.54883e-13 0 0)
(1.52228e-12 0 0)
(-1.41897e-12 0 0)
(-5.50894e-13 0 0)
(-1.50575e-11 0 0)
(-1.53735e-11 0 0)
(3.58234e-13 0 0)
(4.13475e-12 0 0)
(6.58646e-14 0 0)
(-1.82358e-14 0 0)
(-1.42794e-14 0 0)
(2.9125e-15 0 0)
(1.13095e-14 0 0)
(1.3194e-14 0 0)
(-1.70934e-14 0 0)
(0 0 0)
(4.10108e-15 0 0)
(-4.76769e-15 0 0)
(-6.77773e-16 0 0)
(5.29549e-15 0 0)
(1.19583e-14 0 0)
(-1.22556e-15 0 0)
(1.47018e-15 0 0)
(-3.32999e-16 0 0)
(-1.72248e-15 0 0)
(-9.60396e-16 0 0)
(2.16479e-14 0 0)
(1.95567e-14 0 0)
(-3.56485e-15 0 0)
(-3.79277e-15 0 0)
(1.53076e-15 0 0)
(-2.20699e-14 0 0)
(-2.10723e-14 0 0)
(4.40863e-15 0 0)
(8.6612e-16 0 0)
(-1.62442e-15 0 0)
(-6.88678e-16 0 0)
(-6.12592e-15 0 0)
(3.7273e-14 0 0)
(4.81083e-14 0 0)
(0 0 0)
(-1.37185e-14 0 0)
(-1.50945e-15 0 0)
(-1.50945e-15 0 0)
(-1.7806e-14 0 0)
(-3.452e-14 0 0)
(-1.82358e-14 0 0)
(-1.42794e-14 0 0)
(5.57106e-16 0 0)
(8.95411e-15 0 0)
(1.3194e-14 0 0)
(0 0 0)
(0 0 0)
(0 0 0)
(-6.16714e-15 0 0)
(-6.16714e-15 0 0)
(0 0 0)
(0 0 0)
(0 0 0)
(3.09347e-15 0 0)
(3.09347e-15 0 0)
(3.21485e-15 0 0)
(3.21485e-15 0 0)
(1.49452e-14 0 0)
(1.49452e-14 0 0)
(-2.10236e-15 0 0)
(-2.10236e-15 0 0)
(0 0 0)
(-1.85903e-14 0 0)
(-1.85903e-14 0 0)
(0 0 0)
(-2.57322e-16 0 0)
(-2.57322e-16 0 0)
(0 0 0)
(0 0 0)
(3.73727e-14 0 0)
(3.73727e-14 0 0)
(0 0 0)
(0 0 0)
(-3.45142e-15 0 0)
(-3.45142e-15 0 0)
(0 0 0)
(0 0 0)
(0 0 0)
(0 0 0)
(4.98586e-15 0 0)
(4.98586e-15 0 0)
(0 0 0)
(-1.2108e-12 0 0)
(4.73385e-13 0 0)
(0 0 0)
(-9.79456e-14 0 0)
(4.69039e-14 0 0)
(0 0 0)
(0 0 0)
(1.77433e-13 0 0)
(1.35205e-13 0 0)
(1.09225e-14 0 0)