/*--------------------------------*- C++ -*----------------------------------*\
| =========                 |                                                 |
| \\      /  F ield         | OpenFOAM: The Open Source CFD Toolbox           |
|  \\    /   O peration     | Version:  2.2.x                                 |
|   \\  /    A nd           | Web:      www.OpenFOAM.org                      |
|    \\/     M anipulation  |                                                 |
\*---------------------------------------------------------------------------*/
FoamFile
{
    version     2.0;
    format      ascii;
    class       labelFieldField;
    location    "0.0002";
    object      collisionRecordsPairOrigIdOfOther;
}
// * * * * * * * * * * * * * * * * * * * * * * * * * * * * * * * * * * * * * //


2405
(
1(37)
1(38)
1(39)
2(4 40)
2(3 41)
1(42)
1(43)
1(44)
2(9 45)
2(8 46)
2(11 47)
2(10 48)
2(13 49)
2(12 50)
2(15 51)
2(14 52)
1(53)
1(54)
1(55)
1(56)
2(21 57)
2(20 58)
1(59)
1(60)
2(25 61)
2(24 62)
1(63)
1(64)
2(29 65)
2(28 66)
1(67)
1(68)
1(69)
1(70)
2(35 71)
2(34 72)
1(73)
2(0 38)
3(1 75 37)
1(2)
2(3 77)
2(78 4)
3(5 79 43)
4(6 80 42 44)
3(7 81 43)
3(46 82 8)
3(45 83 9)
1(10)
1(11)
2(12 86)
2(13 51)
3(14 88 50)
1(15)
1(16)
2(17 91)
3(18 92 56)
3(19 93 55)
3(58 94 20)
3(57 95 21)
1(22)
3(23 97 61)
3(24 98 60)
1(25)
1(26)
1(27)
3(66 102 28)
2(65 29)
3(30 104 68)
3(31 105 67)
2(106 32)
2(33 107)
2(108 34)
3(109 35 73)
3(110 36 72)
1(111)
1(38)
1(77)
2(40 76)
2(41 79)
2(78 42)
2(43 81)
3(80 44 82)
2(45 81)
2(46 84)
3(83 85 121)
1(84)
1(49)
0()
2(51 89)
3(88 90 126)
2(89 91)
3(92 90 54)
2(55 91)
2(56 94)
2(93 57)
2(58 96)
3(95 97 133)
2(96 60)
2(61 99)
3(98 100 136)
3(101 99 137)
2(100 102)
2(101 65)
2(104 140)
2(103 67)
2(68 106)
3(105 69 107)
2(70 106)
2(71 109)
2(108 72)
1(73)
1(74)
0()
0()
1(115)
1(114)
0()
0()
0()
1(120)
1(119)
2(122 84)
1(121)
1(124)
1(123)
1(126)
2(125 89)
0()
2(129 165)
1(128)
0()
1(132)
1(131)
2(96 170)
0()
1(136)
2(135 99)
1(100)
0()
1(140)
2(139 103)
0()
0()
0()
0()
1(146)
1(145)
0()
1(149)
2(150 148)
1(149)
1(152)
1(151)
0()
0()
0()
1(157)
1(156)
1(159)
1(158)
1(161)
1(160)
1(163)
1(162)
0()
1(128)
0()
0()
1(169)
1(168)
1(133)
0()
1(173)
1(172)
0()
0()
1(177)
1(176)
0()
0()
0()
0()
1(183)
1(182)
0()
0()
1(223)
0()
2(189 225)
2(188 226)
1(227)
1(228)
0()
1(194)
2(193 231)
2(196 232)
1(195)
2(198 234)
2(197 235)
2(200 236)
2(199 237)
1(238)
1(203)
2(202 240)
1(241)
2(206 242)
1(205)
0()
1(245)
2(210 246)
2(209 247)
1(248)
0()
2(214 250)
2(213 251)
1(252)
1(253)
0()
1(255)
2(220 256)
2(219 257)
1(258)
1(223)
3(260 186 222)
2(261 225)
4(226 262 188 224)
3(225 263 189)
3(264 190 228)
3(265 191 227)
2(266 230)
2(231 229)
3(230 268 194)
3(233 269 195)
1(232)
2(271 197)
3(272 198 236)
3(273 199 235)
3(274 200 238)
4(275 201 237 239)
2(276 238)
3(277 203 241)
3(278 204 240)
3(243 279 205)
1(242)
2(281 245)
4(282 208 244 246)
3(283 209 245)
3(284 210 248)
3(285 211 247)
0()
3(251 287 213)
3(250 288 214)
3(289 215 253)
4(290 216 252 254)
2(291 253)
3(292 218 256)
3(293 219 255)
3(294 220 258)
3(295 221 257)
1(296)
2(223 261)
2(224 260)
1(225)
2(226 264)
2(263 227)
2(228 266)
2(229 265)
0()
2(231 269)
2(268 232)
1(271)
3(234 272 270)
2(271 235)
2(236 274)
2(273 237)
2(238 276)
3(275 239 277)
2(240 276)
2(241 279)
2(278 242)
2(281 317)
3(244 280 282)
2(281 245)
2(246 284)
2(283 247)
2(248 286)
3(285 287 323)
2(250 286)
2(251 289)
2(288 252)
2(253 291)
3(290 254 292)
2(255 291)
2(256 294)
2(293 257)
1(258)
2(333 259)
1(334)
0()
2(300 336)
2(299 337)
1(338)
1(339)
1(340)
2(305 341)
2(304 342)
2(307 343)
2(306 344)
2(309 345)
2(308 346)
2(311 347)
2(310 348)
1(349)
2(314 350)
2(313 351)
1(352)
2(317 353)
3(316 354 280)
1(355)
1(356)
2(321 357)
2(320 358)
1(359)
2(286 360)
2(325 361)
2(324 362)
1(363)
1(364)
1(365)
1(366)
2(331 367)
2(330 368)
1(369)
2(296 334)
3(297 335 333)
1(334)
2(299 337)
2(300 336)
1(301)
1(302)
1(303)
2(304 342)
2(305 341)
2(306 344)
2(307 343)
2(308 346)
2(345 309)
2(310 348)
2(347 311)
1(312)
2(313 351)
2(314 350)
1(315)
2(316 354)
2(317 353)
1(318)
1(319)
2(320 358)
2(357 321)
1(322)
1(323)
2(324 362)
2(325 361)
1(326)
1(327)
1(328)
1(329)
2(330 368)
2(367 331)
1(332)
2(407 371)
2(408 370)
0()
2(374 410)
2(373 411)
1(412)
1(413)
1(414)
2(379 415)
2(378 416)
2(381 417)
2(380 418)
2(383 419)
2(382 420)
2(385 421)
2(384 422)
1(423)
2(388 424)
2(387 425)
1(426)
2(391 427)
2(390 428)
1(429)
1(430)
2(395 431)
2(394 432)
1(433)
1(434)
2(399 435)
2(398 436)
1(437)
1(438)
1(439)
1(440)
2(405 441)
2(404 442)
1(443)
3(370 408 444)
2(371 407)
1(446)
2(373 411)
2(374 410)
1(375)
1(376)
1(377)
2(378 416)
2(379 415)
2(380 418)
2(381 417)
2(382 420)
2(383 419)
2(384 422)
2(421 385)
1(386)
2(387 461)
3(388 462 426)
2(389 425)
2(390 428)
2(391 427)
1(392)
2(393 431)
3(394 468 430)
1(395)
1(396)
1(397)
2(398 436)
2(399 435)
1(400)
1(401)
1(402)
1(403)
2(404 442)
2(441 405)
1(406)
2(407 445)
2(446 444)
4(445 409 483 447)
3(448 484 446)
2(447 485)
1(486)
1(487)
1(488)
2(453 489)
2(452 490)
2(455 491)
2(454 492)
2(457 493)
2(456 494)
2(459 495)
2(458 496)
2(497 461)
3(462 460 424)
2(425 461)
1(500)
2(465 501)
2(464 502)
1(503)
1(504)
2(431 469)
3(468 506 470)
2(507 469)
1(508)
2(473 509)
2(472 510)
1(511)
1(512)
1(513)
1(514)
2(479 515)
2(478 516)
1(517)
0()
0()
1(446)
2(447 485)
2(448 484)
1(449)
1(450)
2(451 525)
2(452 490)
2(453 489)
2(454 492)
2(455 491)
2(456 494)
2(457 493)
2(458 496)
2(495 459)
1(460)
1(499)
1(498)
1(463)
2(464 502)
2(465 501)
1(466)
1(467)
1(506)
2(505 469)
1(470)
1(471)
2(472 510)
2(473 509)
1(474)
1(475)
1(476)
1(477)
2(478 516)
2(515 479)
1(480)
1(555)
1(556)
1(557)
2(558 522)
2(521 559)
1(560)
1(561)
2(562 488)
2(563 527)
2(526 564)
2(565 529)
2(528 566)
2(567 531)
2(530 568)
2(533 569)
2(532 570)
1(571)
2(572 536)
2(535 573)
1(574)
2(575 539)
2(538 576)
1(577)
1(578)
2(543 579)
2(542 580)
1(581)
1(582)
2(583 547)
2(546 584)
1(585)
1(586)
1(587)
1(588)
2(553 589)
2(552 590)
1(591)
1(518)
2(519 593)
2(520 594)
3(521 559 595)
3(522 558 596)
2(523 597)
2(524 598)
2(525 599)
3(526 564 600)
3(527 563 601)
3(528 566 602)
3(529 565 603)
3(530 568 604)
3(531 567 605)
3(532 570 606)
3(533 569 607)
2(534 608)
3(535 573 609)
3(572 536 610)
2(537 611)
3(538 576 612)
3(539 575 613)
2(540 614)
2(541 615)
3(542 580 616)
3(543 579 617)
2(544 618)
2(545 619)
3(546 584 620)
3(547 583 621)
2(548 622)
2(549 623)
2(550 624)
2(551 625)
3(552 590 626)
3(553 589 627)
2(554 628)
1(593)
3(630 556 592)
1(557)
2(558 596)
2(559 595)
1(560)
1(561)
1(562)
2(563 601)
2(564 600)
2(565 603)
3(566 602 640)
3(567 605 641)
2(568 604)
2(569 607)
2(606 570)
1(571)
1(572)
3(573 647 611)
2(574 610)
2(575 613)
2(576 612)
1(577)
1(578)
2(579 617)
2(616 580)
1(581)
1(582)
2(583 621)
2(584 620)
1(585)
1(586)
1(587)
1(588)
2(589 627)
2(626 590)
1(591)
1(666)
2(593 631)
3(630 668 632)
3(633 669 631)
2(632 670)
1(671)
1(672)
1(673)
2(638 674)
2(637 675)
1(676)
2(603 641)
3(640 642 604)
2(641 679)
2(644 680)
2(643 681)
2(682 646)
3(647 683 645)
2(646 610)
1(685)
2(650 686)
2(649 687)
1(688)
1(689)
2(654 690)
2(653 691)
1(692)
1(693)
2(658 694)
2(657 695)
1(696)
1(697)
1(698)
1(699)
2(664 700)
2(663 701)
1(702)
1(629)
0()
1(631)
2(632 670)
2(633 669)
1(634)
1(635)
1(636)
2(637 675)
2(638 674)
2(639 677)
1(676)
1(679)
2(678 642)
2(643 681)
2(680 644)
1(645)
2(646 684)
1(683)
1(648)
2(649 687)
2(650 686)
1(651)
1(652)
2(653 691)
2(690 654)
1(655)
1(656)
2(657 695)
2(658 694)
1(659)
1(660)
1(661)
1(662)
2(663 701)
2(700 664)
1(665)
0()
0()
0()
1(707)
1(706)
0()
0()
0()
1(712)
1(711)
1(714)
1(713)
1(716)
1(715)
1(718)
1(717)
0()
1(721)
1(720)
0()
1(724)
1(723)
0()
0()
1(728)
1(727)
0()
0()
1(732)
1(731)
0()
0()
0()
0()
1(738)
1(737)
0()
1(777)
1(778)
1(779)
2(744 780)
2(743 781)
1(782)
1(783)
0()
2(749 785)
2(748 786)
2(751 787)
2(750 788)
1(753)
2(752 790)
2(755 791)
2(754 792)
1(793)
1(758)
2(757 795)
1(796)
2(761 797)
2(760 798)
0()
1(800)
2(765 801)
2(764 802)
1(803)
0()
2(769 805)
2(768 806)
1(807)
1(808)
0()
1(810)
2(775 811)
2(774 812)
1(813)
2(740 778)
3(777 815 741)
2(742 816)
3(743 781 817)
3(744 780 818)
3(745 819 783)
4(746 820 782 784)
2(821 783)
2(748 786)
2(749 785)
3(750 788 824)
4(751 787 825 789)
2(826 788)
1(753)
1(754)
3(755 829 793)
3(756 792 794)
2(831 793)
3(758 832 796)
3(759 833 795)
3(760 798 834)
3(761 797 835)
2(836 800)
4(763 837 799 801)
3(764 838 800)
3(765 839 803)
4(766 840 802 804)
2(841 803)
3(768 806 842)
3(769 805 843)
1(770)
1(771)
2(846 810)
2(773 809)
1(774)
3(775 849 813)
3(776 850 812)
0()
1(778)
2(779 817)
2(780 816)
2(781 819)
2(818 782)
2(783 821)
3(820 784 822)
3(821 823 859)
3(822 824 860)
2(823 787)
2(788 826)
3(825 789 827)
3(826 828 864)
3(829 827 865)
2(828 792)
0()
2(794 832)
2(795 831)
2(796 834)
2(833 797)
2(798 836)
4(799 835 837 873)
2(836 800)
2(801 839)
2(838 802)
2(803 841)
3(840 804 842)
2(805 841)
2(806 844)
3(843 845 881)
3(846 844 882)
2(809 845)
1(848)
3(849 847 885)
2(848 812)
1(813)
1(852)
1(851)
0()
1(855)
1(854)
0()
0()
0()
2(860 822)
2(859 823)
1(862)
1(861)
1(864)
2(863 827)
2(866 828)
1(865)
0()
1(869)
1(868)
0()
1(872)
1(871)
2(836 874)
1(873)
1(876)
1(875)
0()
1(915)
1(880)
1(879)
1(844)
1(845)
0()
0()
2(886 848)
1(885)
0()
2(925 889)
1(888)
1(927)
2(928 892)
2(891 929)
1(930)
1(931)
1(932)
2(933 897)
2(896 934)
2(935 899)
2(898 936)
2(901 937)
2(900 938)
2(903 939)
2(902 940)
1(941)
2(942 906)
2(905 943)
1(944)
2(945 909)
2(908 946)
1(947)
1(948)
2(949 913)
2(912 950)
1(951)
2(952 878)
2(953 917)
2(916 954)
1(955)
1(956)
1(957)
1(958)
2(923 959)
2(922 960)
1(961)
1(888)
1(963)
1(890)
3(891 929 965)
3(892 928 966)
1(893)
1(894)
1(895)
2(896 934)
2(897 933)
2(898 936)
2(899 935)
2(900 938)
2(901 937)
2(902 940)
2(903 939)
1(904)
2(905 943)
3(942 906 980)
2(907 981)
3(908 946 982)
3(909 945 983)
1(910)
1(911)
2(912 950)
3(913 949 987)
2(914 988)
1(915)
2(916 954)
2(917 953)
2(918 992)
2(919 993)
1(920)
1(921)
3(922 960 996)
3(923 959 997)
2(924 998)
1(963)
3(1000 926 962)
2(1001 965)
4(966 1002 928 964)
3(965 1003 929)
0()
0()
0()
1(971)
1(970)
1(973)
2(972 974)
2(1011 973)
0()
1(977)
1(976)
0()
2(980 1016)
4(979 1017 943 981)
3(1018 944 980)
3(983 1019 945)
3(982 1020 946)
2(1021 985)
1(984)
0()
3(1024 950 988)
3(1025 951 987)
2(1026 990)
2(991 989)
1(990)
3(1029 955 993)
3(1030 956 992)
2(1031 995)
2(994 996)
3(1033 959 995)
3(1034 960 998)
3(1035 961 997)
1(1036)
2(963 1001)
2(964 1000)
1(965)
2(966 1004)
3(1003 1005 1041)
1(1004)
0()
1(1008)
1(1007)
1(1010)
1(1009)
2(974 1012)
3(1011 1013 1049)
2(1014 1012)
2(1013 1015)
3(1016 1014 1052)
3(979 1015 1017)
2(1016 980)
2(981 1019)
2(1018 982)
2(983 1021)
2(984 1020)
1(1023)
3(1024 1022 1060)
2(1023 987)
2(988 1026)
2(989 1025)
1(1028)
3(1027 1029 1065)
2(1028 992)
2(993 1031)
2(994 1030)
0()
2(996 1034)
2(1033 997)
1(998)
2(1073 999)
1(1074)
0()
2(1040 1076)
2(1039 1077)
2(1078 1004)
1(1079)
1(1080)
2(1045 1081)
2(1044 1082)
2(1047 1083)
2(1046 1084)
2(1049 1085)
3(1048 1086 1012)
2(1051 1087)
2(1050 1088)
2(1089 1015)
2(1054 1090)
2(1053 1091)
1(1092)
2(1057 1093)
2(1056 1094)
1(1095)
1(1096)
3(1061 1097 1023)
2(1060 1098)
1(1099)
1(1100)
2(1065 1101)
3(1064 1102 1028)
1(1103)
1(1104)
1(1105)
1(1106)
2(1071 1107)
2(1070 1108)
1(1109)
2(1036 1074)
3(1037 1075 1073)
1(1074)
2(1039 1077)
2(1040 1076)
1(1041)
1(1042)
1(1043)
2(1044 1082)
2(1045 1081)
2(1046 1084)
2(1047 1083)
2(1048 1086)
2(1049 1085)
2(1050 1088)
2(1087 1051)
1(1052)
2(1053 1091)
2(1054 1090)
1(1055)
2(1056 1094)
2(1057 1093)
1(1058)
1(1059)
2(1060 1098)
2(1097 1061)
1(1062)
1(1063)
2(1064 1102)
2(1065 1101)
1(1066)
1(1067)
1(1068)
1(1069)
2(1070 1108)
2(1107 1071)
1(1072)
1(1111)
2(1110 1148)
1(1149)
2(1114 1150)
2(1113 1151)
1(1152)
1(1153)
1(1154)
2(1119 1155)
2(1118 1156)
2(1121 1157)
2(1120 1158)
1(1123)
2(1122 1160)
2(1125 1161)
2(1124 1162)
1(1163)
2(1128 1164)
2(1127 1165)
1(1166)
2(1131 1167)
2(1130 1168)
0()
1(1170)
2(1135 1171)
2(1134 1172)
1(1173)
0()
2(1139 1175)
2(1138 1176)
1(1177)
1(1178)
0()
1(1180)
2(1145 1181)
2(1144 1182)
1(1183)
1(1148)
2(1111 1147)
1(1112)
2(1151 1113)
2(1150 1114)
1(1115)
1(1116)
1(1117)
2(1156 1118)
2(1155 1119)
2(1158 1120)
2(1157 1121)
2(1160 1196)
4(1159 1197 1123 1161)
3(1198 1124 1160)
3(1199 1125 1163)
3(1200 1126 1162)
2(1165 1127)
2(1164 1128)
1(1129)
2(1168 1130)
2(1167 1131)
2(1206 1170)
4(1207 1133 1169 1171)
3(1208 1134 1170)
1(1135)
2(1136 1174)
2(1211 1173)
2(1176 1138)
2(1175 1139)
3(1214 1140 1178)
4(1215 1141 1177 1179)
2(1216 1178)
3(1217 1143 1181)
3(1218 1144 1180)
1(1145)
1(1146)
2(1185 1221)
1(1184)
0()
1(1188)
1(1187)
0()
0()
0()
1(1193)
1(1192)
1(1195)
3(1194 1196 1232)
3(1159 1195 1197)
2(1196 1160)
2(1161 1199)
2(1198 1162)
2(1163 1201)
3(1200 1202 1238)
1(1201)
0()
1(1205)
3(1204 1206 1242)
3(1169 1205 1207)
2(1206 1170)
2(1171 1209)
3(1208 1210 1246)
1(1209)
2(1174 1212)
3(1211 1213 1249)
3(1212 1214 1250)
2(1213 1177)
2(1178 1216)
3(1215 1179 1217)
2(1180 1216)
2(1181 1219)
3(1218 1220 1256)
1(1219)
1(1184)
0()
0()
1(1225)
1(1224)
0()
0()
0()
1(1230)
1(1229)
1(1232)
2(1231 1195)
1(1234)
1(1233)
1(1236)
1(1235)
0()
2(1239 1201)
1(1238)
0()
1(1242)
2(1241 1205)
0()
0()
1(1246)
2(1245 1209)
0()
0()
2(1250 1212)
2(1249 1213)
0()
0()
0()
0()
1(1256)
2(1255 1219)
0()
2(1295 1259)
1(1258)
1(1297)
2(1298 1262)
2(1261 1299)
1(1300)
1(1301)
1(1302)
2(1303 1267)
2(1266 1304)
2(1305 1269)
2(1268 1306)
2(1307 1271)
2(1270 1308)
2(1273 1309)
2(1272 1310)
1(1311)
2(1276 1312)
2(1275 1313)
1(1314)
2(1315 1279)
2(1278 1316)
1(1317)
1(1318)
2(1319 1283)
2(1282 1320)
1(1321)
1(1322)
2(1323 1287)
2(1286 1324)
1(1325)
1(1326)
1(1327)
1(1328)
2(1293 1329)
2(1292 1330)
1(1331)
1(1258)
1(1333)
1(1260)
3(1261 1299 1335)
3(1262 1298 1336)
1(1263)
1(1264)
1(1265)
3(1266 1304 1340)
3(1267 1303 1341)
3(1268 1306 1342)
3(1269 1305 1343)
2(1270 1308)
3(1271 1307 1345)
3(1272 1310 1346)
3(1273 1309 1347)
2(1274 1348)
2(1275 1313)
3(1276 1312 1350)
2(1277 1351)
3(1278 1316 1352)
3(1279 1315 1353)
2(1280 1354)
1(1281)
2(1282 1320)
3(1283 1319 1357)
2(1284 1358)
1(1285)
3(1286 1324 1360)
3(1287 1323 1361)
1(1288)
1(1289)
1(1290)
2(1291 1365)
3(1292 1330 1366)
3(1293 1329 1367)
2(1294 1368)
1(1333)
3(1370 1296 1332)
2(1371 1335)
4(1336 1372 1298 1334)
3(1335 1373 1299)
0()
0()
2(1376 1340)
4(1341 1377 1303 1339)
3(1340 1378 1304)
3(1343 1379 1305)
4(1342 1380 1306 1344)
2(1381 1343)
3(1382 1308 1346)
3(1383 1309 1345)
3(1384 1310 1348)
4(1385 1311 1347 1349)
2(1386 1348)
3(1387 1313 1351)
3(1388 1314 1350)
3(1353 1389 1315)
3(1352 1390 1316)
3(1391 1317 1355)
1(1354)
0()
3(1394 1320 1358)
4(1395 1321 1357 1359)
2(1396 1358)
3(1361 1397 1323)
3(1360 1398 1324)
0()
0()
2(1401 1365)
4(1402 1328 1364 1366)
3(1403 1329 1365)
3(1404 1330 1368)
3(1405 1331 1367)
1(1406)
2(1333 1371)
2(1334 1370)
1(1335)
2(1336 1374)
3(1373 1375 1411)
3(1376 1374 1412)
3(1339 1375 1377)
2(1376 1340)
2(1341 1379)
2(1378 1342)
2(1343 1381)
3(1380 1344 1382)
2(1345 1381)
2(1346 1384)
2(1383 1347)
2(1348 1386)
3(1385 1349 1387)
2(1350 1386)
2(1351 1389)
2(1388 1352)
2(1353 1391)
2(1390 1354)
1(1393)
3(1394 1392 1430)
2(1393 1357)
2(1358 1396)
3(1395 1359 1397)
2(1360 1396)
2(1361 1399)
3(1398 1400 1436)
3(1401 1399 1437)
3(1364 1400 1402)
2(1401 1365)
2(1366 1404)
2(1403 1367)
1(1368)
2(1407 1369)
1(1406)
0()
1(1410)
1(1409)
1(1374)
1(1375)
0()
1(1415)
1(1414)
1(1417)
1(1416)
1(1419)
1(1418)
1(1421)
1(1420)
0()
1(1424)
1(1423)
0()
1(1427)
1(1426)
0()
0()
2(1431 1393)
1(1430)
0()
0()
1(1435)
1(1434)
1(1399)
1(1400)
0()
0()
1(1441)
1(1440)
0()
0()
0()
0()
1(1447)
1(1446)
0()
0()
0()
1(1452)
1(1451)
1(1454)
1(1453)
1(1456)
1(1455)
1(1458)
1(1457)
0()
1(1461)
1(1460)
0()
1(1464)
1(1463)
0()
0()
1(1468)
1(1467)
0()
0()
1(1472)
1(1471)
0()
0()
0()
0()
1(1478)
1(1477)
0()
1(1481)
2(1482 1480)
1(1481)
1(1484)
1(1483)
0()
0()
0()
1(1489)
1(1488)
1(1491)
1(1490)
1(1493)
1(1492)
1(1495)
1(1494)
0()
1(1498)
1(1497)
0()
1(1501)
1(1500)
0()
0()
1(1505)
2(1504 1542)
1(1543)
0()
2(1509 1545)
2(1508 1546)
0()
0()
0()
0()
1(1515)
1(1514)
0()
0()
0()
0()
1(1521)
1(1520)
0()
0()
0()
1(1526)
1(1525)
1(1528)
1(1527)
1(1530)
1(1529)
1(1532)
1(1531)
0()
1(1535)
1(1534)
0()
1(1538)
1(1537)
0()
0()
0()
3(1579 1505 1543)
3(1580 1506 1542)
0()
3(1546 1582 1508)
3(1545 1583 1509)
0()
0()
0()
0()
1(1552)
1(1551)
0()
2(1555 1591)
1(1554)
1(1593)
2(1558 1594)
2(1557 1595)
1(1596)
1(1597)
1(1598)
2(1563 1599)
2(1562 1600)
2(1565 1601)
2(1564 1602)
2(1603 1567)
2(1566 1604)
2(1569 1605)
2(1568 1606)
1(1607)
2(1572 1608)
2(1571 1609)
1(1610)
2(1575 1611)
2(1574 1612)
1(1613)
2(1614 1578)
3(1579 1615 1577)
2(1578 1542)
2(1543 1581)
3(1580 1582 1618)
2(1581 1545)
2(1546 1584)
3(1583 1621 1585)
2(1622 1584)
1(1623)
1(1624)
2(1589 1625)
2(1588 1626)
1(1627)
1(1554)
0()
1(1556)
2(1557 1595)
2(1558 1594)
1(1559)
1(1560)
1(1561)
2(1562 1600)
2(1563 1599)
2(1564 1602)
2(1565 1601)
2(1566 1604)
2(1603 1567)
2(1568 1606)
2(1605 1569)
1(1570)
2(1571 1609)
2(1608 1572)
1(1573)
2(1574 1612)
2(1575 1611)
1(1576)
1(1577)
2(1578 1616)
1(1615)
0()
1(1581)
1(1620)
1(1619)
1(1584)
1(1585)
1(1586)
1(1587)
2(1588 1626)
2(1625 1589)
1(1590)
0()
0()
0()
1(1632)
1(1631)
0()
0()
0()
1(1637)
1(1636)
1(1639)
1(1638)
1(1641)
1(1640)
1(1643)
1(1642)
0()
1(1646)
1(1645)
0()
1(1649)
1(1648)
0()
0()
1(1653)
1(1652)
0()
0()
1(1657)
1(1656)
0()
0()
0()
0()
1(1663)
1(1662)
0()
1(1666)
2(1665 1703)
0()
2(1669 1705)
2(1668 1706)
0()
0()
1(1709)
2(1674 1710)
2(1673 1711)
2(1676 1712)
2(1675 1713)
2(1678 1714)
2(1677 1715)
2(1680 1716)
2(1679 1717)
1(1718)
1(1683)
2(1682 1720)
1(1721)
2(1686 1722)
2(1685 1723)
0()
1(1725)
2(1690 1726)
2(1689 1727)
1(1728)
0()
2(1694 1730)
2(1693 1731)
1(1732)
1(1733)
0()
1(1735)
2(1700 1736)
2(1699 1737)
1(1738)
1(1703)
3(1702 1740 1666)
1(1741)
3(1706 1742 1668)
3(1705 1743 1669)
0()
1(1709)
3(1746 1672 1708)
3(1711 1747 1673)
3(1710 1748 1674)
3(1713 1749 1675)
3(1712 1750 1676)
2(1751 1677)
3(1752 1678 1716)
3(1753 1679 1715)
3(1754 1680 1718)
3(1755 1681 1717)
0()
3(1757 1683 1721)
3(1758 1684 1720)
3(1723 1759 1685)
3(1722 1760 1686)
2(1761 1725)
4(1762 1688 1724 1726)
3(1763 1689 1725)
3(1764 1690 1728)
4(1765 1691 1727 1729)
2(1766 1728)
3(1731 1767 1693)
3(1730 1768 1694)
3(1769 1695 1733)
4(1770 1696 1732 1734)
2(1771 1733)
3(1772 1698 1736)
3(1773 1699 1735)
3(1774 1700 1738)
3(1775 1701 1737)
0()
2(1703 1741)
3(1740 1742 1704)
2(1705 1741)
2(1706 1744)
3(1743 1745 1781)
1(1744)
2(1709 1747)
2(1710 1746)
2(1711 1749)
2(1748 1712)
2(1713 1751)
3(1750 1714 1752)
2(1751 1715)
2(1716 1754)
2(1753 1717)
2(1718 1756)
3(1755 1757 1793)
2(1720 1756)
2(1721 1759)
2(1758 1722)
2(1723 1761)
3(1724 1760 1762)
2(1761 1725)
2(1726 1764)
2(1763 1727)
2(1728 1766)
3(1765 1729 1767)
2(1730 1766)
2(1731 1769)
2(1768 1732)
2(1733 1771)
3(1770 1734 1772)
2(1735 1771)
2(1736 1774)
2(1773 1737)
1(1738)
1(1777)
1(1776)
0()
1(1780)
1(1779)
1(1744)
0()
0()
1(1785)
1(1784)
1(1787)
1(1786)
1(1789)
1(1788)
1(1791)
1(1790)
0()
2(1794 1756)
1(1793)
0()
1(1797)
1(1796)
0()
0()
1(1801)
1(1800)
0()
0()
1(1805)
1(1804)
0()
0()
0()
0()
1(1811)
1(1810)
0()
0()
0()
0()
1(1817)
1(1816)
0()
0()
0()
1(1822)
1(1821)
1(1824)
1(1823)
1(1826)
1(1825)
1(1828)
1(1827)
0()
1(1831)
1(1830)
0()
1(1834)
1(1833)
0()
0()
1(1838)
1(1837)
0()
0()
1(1842)
1(1841)
0()
0()
0()
0()
1(1848)
1(1847)
0()
2(1851 1887)
2(1850 1888)
0()
2(1854 1890)
2(1853 1891)
1(1892)
1(1893)
1(1894)
2(1859 1895)
2(1858 1896)
2(1861 1897)
2(1860 1898)
1(1863)
2(1862 1900)
2(1865 1901)
2(1864 1902)
1(1903)
1(1868)
2(1867 1905)
1(1906)
2(1871 1907)
2(1870 1908)
1(1909)
1(1910)
2(1875 1911)
2(1874 1912)
1(1913)
1(1914)
2(1879 1915)
2(1878 1916)
1(1917)
1(1918)
1(1919)
1(1920)
2(1885 1921)
2(1884 1922)
1(1923)
2(1850 1888)
4(1851 1887 1925 1889)
2(1926 1888)
3(1853 1891 1927)
3(1854 1890 1928)
3(1855 1929 1893)
3(1856 1930 1892)
2(1931 1857)
3(1858 1896 1932)
3(1859 1895 1933)
2(1860 1898)
2(1861 1897)
2(1900 1936)
4(1899 1863 1937 1901)
3(1864 1938 1900)
3(1865 1939 1903)
4(1866 1940 1902 1904)
2(1941 1903)
3(1868 1942 1906)
3(1869 1943 1905)
3(1870 1908 1944)
3(1871 1907 1945)
2(1946 1872)
3(1873 1947 1911)
3(1874 1948 1910)
3(1875 1949 1913)
3(1876 1950 1912)
2(1951 1877)
3(1878 1916 1952)
3(1879 1915 1953)
3(1880 1954 1918)
3(1881 1955 1917)
2(1882 1956)
3(1883 1957 1921)
3(1884 1958 1920)
1(1885)
1(1886)
0()
1(1888)
2(1889 1927)
2(1890 1926)
2(1891 1929)
2(1928 1892)
2(1893 1931)
3(1930 1894 1932)
2(1931 1895)
2(1896 1934)
3(1933 1935 1971)
3(1934 1936 1972)
3(1899 1935 1937)
2(1936 1900)
2(1901 1939)
2(1938 1902)
2(1903 1941)
3(1940 1904 1942)
2(1905 1941)
2(1906 1944)
2(1943 1907)
2(1908 1946)
3(1945 1909 1947)
2(1946 1910)
2(1911 1949)
2(1948 1912)
2(1913 1951)
3(1950 1914 1952)
2(1951 1915)
2(1916 1954)
2(1953 1917)
2(1918 1956)
3(1919 1955 1957)
2(1920 1956)
2(1921 1959)
3(1958 1960 1996)
1(1959)
1(1962)
1(1961)
0()
1(1965)
1(1964)
0()
0()
0()
1(1970)
1(1969)
2(1972 1934)
2(1971 1935)
1(1974)
1(1973)
1(1976)
1(1975)
0()
1(1979)
1(1978)
0()
1(1982)
1(1981)
0()
0()
1(1986)
1(1985)
0()
0()
1(1990)
1(1989)
0()
0()
0()
0()
1(1996)
2(1995 1959)
0()
0()
0()
0()
1(2002)
1(2001)
0()
0()
0()
1(2007)
1(2006)
1(2009)
1(2008)
1(2011)
1(2010)
1(2013)
1(2012)
0()
1(2016)
1(2015)
0()
1(2019)
1(2018)
0()
0()
1(2023)
1(2022)
0()
0()
1(2027)
1(2026)
0()
0()
0()
0()
1(2033)
1(2032)
0()
2(2036 2072)
1(2035)
0()
1(2039)
1(2038)
0()
0()
0()
2(2044 2080)
2(2043 2081)
1(2046)
1(2045)
1(2048)
2(2047 2085)
2(2050 2086)
1(2049)
0()
1(2053)
1(2052)
0()
2(2056 2092)
2(2055 2093)
0()
0()
1(2060)
1(2059)
0()
0()
2(2064 2100)
2(2063 2101)
0()
0()
0()
0()
1(2070)
1(2069)
0()
1(2035)
0()
0()
1(2076)
1(2075)
0()
0()
0()
3(2081 2117 2043)
3(2080 2118 2044)
1(2083)
1(2082)
0()
3(2122 2048 2086)
3(2123 2049 2085)
0()
0()
1(2090)
1(2089)
0()
3(2093 2129 2055)
3(2092 2130 2056)
1(2131)
0()
1(2097)
1(2096)
0()
0()
3(2101 2137 2063)
3(2100 2138 2064)
0()
0()
0()
0()
1(2107)
1(2106)
0()
2(2110 2146)
2(2111 2109)
1(2110)
1(2113)
1(2112)
0()
1(2116)
3(2117 2115 2153)
2(2116 2080)
2(2081 2119)
3(2118 2120 2156)
2(2119 2121)
3(2122 2120 2158)
2(2121 2085)
2(2086 2124)
3(2123 2125 2161)
1(2124)
1(2127)
2(2126 2128)
3(2129 2127 2165)
2(2128 2092)
2(2093 2131)
3(2130 2094 2132)
1(2131)
1(2134)
1(2133)
1(2136)
3(2137 2135 2173)
2(2136 2100)
2(2101 2139)
3(2138 2140 2176)
1(2139)
0()
0()
1(2144)
1(2143)
0()
1(2109)
0()
1(2185)
2(2150 2186)
2(2149 2187)
1(2188)
1(2189)
2(2190 2116)
2(2155 2191)
2(2154 2192)
3(2157 2193 2119)
2(2156 2194)
3(2159 2195 2121)
2(2158 2196)
2(2161 2197)
3(2160 2198 2124)
1(2199)
2(2164 2200)
2(2163 2201)
2(2202 2128)
2(2167 2203)
2(2166 2204)
1(2205)
1(2206)
2(2171 2207)
2(2170 2208)
1(2209)
2(2210 2136)
2(2175 2211)
2(2174 2212)
2(2213 2139)
1(2214)
1(2215)
1(2216)
2(2181 2217)
2(2180 2218)
1(2219)
2(2220 2184)
1(2183)
1(2148)
2(2149 2187)
2(2150 2186)
1(2151)
1(2152)
1(2153)
2(2154 2192)
2(2155 2191)
2(2156 2194)
2(2157 2193)
2(2158 2196)
2(2159 2195)
2(2160 2198)
2(2197 2161)
1(2162)
2(2163 2201)
2(2164 2200)
1(2165)
2(2166 2204)
2(2167 2203)
1(2168)
1(2169)
2(2170 2208)
2(2207 2171)
1(2172)
1(2173)
2(2174 2212)
2(2175 2211)
1(2176)
1(2177)
1(2178)
1(2179)
2(2180 2218)
2(2217 2181)
1(2182)
1(2183)
0()
0()
1(2224)
1(2223)
0()
0()
0()
1(2229)
1(2228)
1(2231)
1(2230)
2(2233 2269)
1(2232)
1(2235)
1(2234)
0()
1(2238)
1(2237)
0()
1(2241)
1(2240)
0()
1(2280)
2(2245 2281)
1(2244)
0()
0()
1(2249)
1(2248)
0()
0()
0()
0()
1(2255)
1(2254)
0()
1(2258)
1(2257)
0()
1(2261)
1(2260)
0()
0()
2(2301 2265)
2(2266 2264)
1(2265)
1(2268)
1(2267)
3(2306 2270 2232)
1(2269)
1(2272)
1(2271)
0()
1(2275)
1(2274)
0()
1(2278)
1(2277)
2(2316 2280)
4(2317 2243 2279 2281)
3(2318 2244 2280)
0()
1(2284)
2(2321 2283)
1(2286)
1(2285)
0()
1(2289)
2(2326 2288)
0()
1(2292)
1(2291)
0()
2(2295 2331)
1(2294)
0()
1(2298)
1(2297)
1(2300)
2(2301 2299)
2(2264 2300)
1(2303)
1(2302)
1(2305)
2(2304 2306)
2(2305 2269)
0()
1(2309)
1(2308)
0()
1(2312)
1(2311)
0()
1(2315)
2(2314 2316)
3(2279 2315 2317)
2(2316 2280)
2(2281 2319)
2(2318 2320)
1(2319)
2(2284 2322)
2(2321 2323)
1(2322)
0()
0()
2(2289 2327)
2(2326 2328)
2(2329 2327)
1(2328)
0()
1(2294)
0()
0()
1(2335)
1(2334)
0()
0()
0()
1(2340)
1(2339)
1(2342)
1(2341)
1(2344)
1(2343)
1(2346)
1(2345)
0()
1(2349)
1(2348)
0()
1(2352)
1(2351)
0()
0()
1(2356)
1(2355)
0()
0()
1(2360)
1(2359)
0()
0()
0()
0()
1(2366)
1(2365)
0()
1(2369)
1(2368)
0()
1(2372)
1(2371)
0()
0()
0()
1(2377)
1(2376)
1(2379)
1(2378)
1(2381)
1(2380)
1(2383)
1(2382)
0()
1(2386)
1(2385)
0()
1(2389)
1(2388)
0()
0()
1(2393)
1(2392)
0()
0()
1(2397)
1(2396)
0()
0()
0()
0()
1(2403)
1(2402)
0()
)


// ************************************************************************* //
