/*--------------------------------*- C++ -*----------------------------------*\
| =========                 |                                                 |
| \\      /  F ield         | OpenFOAM: The Open Source CFD Toolbox           |
|  \\    /   O peration     | Version:  2.2.x                                 |
|   \\  /    A nd           | Web:      www.OpenFOAM.org                      |
|    \\/     M anipulation  |                                                 |
\*---------------------------------------------------------------------------*/
FoamFile
{
    version     2.0;
    format      ascii;
    class       Cloud<basicMesoScaleCouplingParcel>;
    location    "0.0002";
    object      positions;
}
// * * * * * * * * * * * * * * * * * * * * * * * * * * * * * * * * * * * * * //

2405
(
(0.002 0.002 0.00199971) 0
(0.002 0.006 0.00199971) 0
(0.002 0.01 0.00199969) 1
(0.002 0.014 0.00199971) 1
(0.002 0.018 0.00199971) 1
(0.002 0.022 0.00199971) 2
(0.002 0.026 0.00199971) 2
(0.002 0.03 0.00199974) 3
(0.002 0.034 0.00199971) 3
(0.002 0.038 0.00199971) 3
(0.002 0.042 0.00199971) 4
(0.002 0.046 0.00199971) 4
(0.002 0.05 0.0019997) 4
(0.002 0.054 0.0019997) 5
(0.002 0.058 0.00199971) 5
(0.002 0.062 0.00199971) 6
(0.002 0.066 0.00199971) 6
(0.002 0.07 0.00199968) 350
(0.002 0.074 0.00199971) 350
(0.002 0.078 0.00199971) 350
(0.002 0.082 0.00199971) 400
(0.002 0.086 0.00199971) 400
(0.002 0.09 0.00199974) 400
(0.002 0.094 0.00199971) 401
(0.002 0.098 0.00199971) 401
(0.002 0.102 0.00199971) 402
(0.002 0.106 0.00199971) 402
(0.002 0.11 0.00199971) 403
(0.002 0.114 0.00199971) 403
(0.002 0.118 0.00199971) 403
(0.002 0.122 0.00199971) 404
(0.002 0.126 0.00199971) 404
(0.002 0.13 0.00199971) 405
(0.002 0.134 0.00199971) 405
(0.002 0.138 0.00199971) 405
(0.002 0.142 0.00199971) 406
(0.002 0.146 0.00199971) 406
(0.002 0.00199999 0.00599971) 0
(0.002 0.00599999 0.0059997) 0
(0.002 0.01 0.00599967) 1
(0.002 0.014 0.0059997) 1
(0.002 0.018 0.00599971) 1
(0.002 0.022 0.0059997) 2
(0.002 0.026 0.0059997) 2
(0.002 0.03 0.00599972) 2
(0.002 0.034 0.00599971) 3
(0.002 0.038 0.00599971) 3
(0.002 0.042 0.0059997) 4
(0.002 0.046 0.00599971) 4
(0.002 0.05 0.00599968) 4
(0.002 0.054 0.0059997) 5
(0.002 0.058 0.0059997) 5
(0.002 0.062 0.00599971) 6
(0.002 0.066 0.0059997) 6
(0.002 0.07 0.00599967) 350
(0.002 0.074 0.0059997) 350
(0.002 0.078 0.0059997) 350
(0.002 0.082 0.00599971) 400
(0.002 0.086 0.00599971) 400
(0.002 0.09 0.00599971) 400
(0.002 0.094 0.0059997) 401
(0.002 0.098 0.0059997) 401
(0.002 0.102 0.00599971) 402
(0.002 0.106 0.00599971) 402
(0.002 0.11 0.00599968) 403
(0.002 0.114 0.00599971) 403
(0.002 0.118 0.00599971) 403
(0.002 0.122 0.0059997) 404
(0.002 0.126 0.0059997) 404
(0.002 0.13 0.00599971) 405
(0.002 0.134 0.0059997) 405
(0.002 0.138 0.00599971) 405
(0.002 0.142 0.00599971) 406
(0.002 0.146 0.00599971) 406
(0.002 0.00199998 0.00999971) 0
(0.002 0.00600001 0.00999968) 0
(0.002 0.01 0.00999968) 1
(0.002 0.014 0.00999968) 1
(0.002 0.018 0.00999968) 1
(0.002 0.022 0.00999968) 2
(0.002 0.026 0.00999968) 2
(0.002 0.03 0.00999968) 3
(0.002 0.034 0.00999968) 3
(0.002 0.038 0.00999968) 3
(0.002 0.042 0.00999971) 4
(0.002 0.046 0.00999971) 4
(0.002 0.05 0.00999965) 4
(0.002 0.054 0.00999971) 5
(0.002 0.058 0.00999968) 5
(0.002 0.062 0.00999971) 6
(0.002 0.066 0.00999971) 6
(0.002 0.07 0.00999964) 6
(0.002 0.074 0.00999968) 350
(0.002 0.078 0.00999968) 350
(0.002 0.082 0.00999968) 400
(0.002 0.086 0.00999968) 400
(0.002 0.09 0.00999981) 400
(0.002 0.094 0.00999968) 401
(0.002 0.098 0.00999968) 401
(0.002 0.102 0.00999971) 402
(0.002 0.106 0.00999971) 402
(0.002 0.11 0.00999968) 402
(0.002 0.114 0.00999968) 403
(0.002 0.118 0.00999971) 403
(0.002 0.122 0.00999968) 404
(0.002 0.126 0.00999968) 404
(0.002 0.13 0.0099997) 405
(0.002 0.134 0.00999968) 405
(0.002 0.138 0.00999968) 405
(0.002 0.142 0.00999968) 406
(0.002 0.146 0.00999968) 406
(0.002 0.002 0.0139997) 0
(0.002 0.006 0.0139997) 0
(0.002 0.01 0.0139997) 1
(0.002 0.014 0.0139997) 1
(0.002 0.018 0.0139997) 1
(0.002 0.022 0.0139997) 2
(0.002 0.026 0.0139997) 2
(0.002 0.03 0.0139997) 3
(0.002 0.034 0.0139997) 3
(0.002 0.038 0.0139997) 3
(0.002 0.042 0.0139997) 4
(0.002 0.046 0.0139997) 4
(0.002 0.05 0.0139997) 4
(0.002 0.054 0.0139997) 5
(0.002 0.058 0.0139997) 5
(0.002 0.062 0.0139997) 6
(0.002 0.066 0.0139997) 6
(0.002 0.07 0.0139997) 350
(0.002 0.074 0.0139997) 350
(0.002 0.078 0.0139997) 350
(0.002 0.082 0.0139997) 400
(0.002 0.086 0.0139997) 400
(0.002 0.09 0.0139997) 400
(0.002 0.094 0.0139997) 401
(0.002 0.098 0.0139997) 401
(0.002 0.102 0.0139997) 402
(0.002 0.106 0.0139997) 402
(0.002 0.11 0.0139997) 402
(0.002 0.114 0.0139997) 403
(0.002 0.118 0.0139997) 403
(0.002 0.122 0.0139997) 404
(0.002 0.126 0.0139997) 404
(0.002 0.13 0.0139997) 405
(0.002 0.134 0.0139997) 405
(0.002 0.138 0.0139997) 405
(0.002 0.142 0.0139997) 406
(0.002 0.146 0.0139997) 406
(0.002 0.002 0.0179997) 0
(0.002 0.006 0.0179997) 0
(0.002 0.00999999 0.0179997) 0
(0.002 0.014 0.0179997) 1
(0.002 0.018 0.0179997) 1
(0.002 0.022 0.0179997) 2
(0.002 0.026 0.0179997) 2
(0.002 0.03 0.0179997) 3
(0.002 0.034 0.0179997) 3
(0.002 0.038 0.0179997) 3
(0.002 0.042 0.0179997) 4
(0.002 0.046 0.0179997) 4
(0.002 0.05 0.0179997) 4
(0.002 0.054 0.0179997) 5
(0.002 0.058 0.0179997) 5
(0.002 0.062 0.0179997) 6
(0.002 0.066 0.0179997) 6
(0.002 0.07 0.0179996) 350
(0.002 0.074 0.0179997) 350
(0.002 0.078 0.0179997) 350
(0.002 0.082 0.0179997) 400
(0.002 0.086 0.0179997) 400
(0.002 0.09 0.0179997) 400
(0.002 0.094 0.0179997) 401
(0.002 0.098 0.0179997) 401
(0.002 0.102 0.0179997) 402
(0.002 0.106 0.0179997) 402
(0.002 0.11 0.0179997) 402
(0.002 0.114 0.0179997) 403
(0.002 0.118 0.0179997) 403
(0.002 0.122 0.0179997) 404
(0.002 0.126 0.0179997) 404
(0.002 0.13 0.0179997) 405
(0.002 0.134 0.0179997) 405
(0.002 0.138 0.0179997) 405
(0.002 0.142 0.0179997) 406
(0.002 0.146 0.0179997) 406
(0.002 0.002 0.0219997) 7
(0.002 0.006 0.0219997) 7
(0.002 0.01 0.0219997) 7
(0.002 0.014 0.0219997) 8
(0.002 0.018 0.0219997) 8
(0.002 0.022 0.0219997) 9
(0.002 0.026 0.0219997) 9
(0.002 0.03 0.0219997) 9
(0.002 0.034 0.0219997) 10
(0.002 0.038 0.0219997) 10
(0.002 0.042 0.0219997) 11
(0.002 0.046 0.0219997) 11
(0.002 0.05 0.0219997) 11
(0.002 0.054 0.0219997) 12
(0.002 0.058 0.0219997) 12
(0.002 0.062 0.0219997) 13
(0.002 0.066 0.0219997) 13
(0.002 0.07 0.0219997) 351
(0.002 0.074 0.0219997) 351
(0.002 0.078 0.0219997) 351
(0.002 0.082 0.0219997) 407
(0.002 0.086 0.0219997) 407
(0.002 0.09 0.0219997) 407
(0.002 0.094 0.0219997) 408
(0.002 0.098 0.0219997) 408
(0.002 0.102 0.0219997) 409
(0.002 0.106 0.0219997) 409
(0.002 0.11 0.0219997) 410
(0.002 0.114 0.0219997) 410
(0.002 0.118 0.0219997) 410
(0.002 0.122 0.0219997) 411
(0.002 0.126 0.0219997) 411
(0.002 0.13 0.0219997) 412
(0.002 0.134 0.0219997) 412
(0.002 0.138 0.0219997) 412
(0.002 0.142 0.0219997) 413
(0.002 0.146 0.0219997) 413
(0.002 0.002 0.0259997) 7
(0.002 0.006 0.0259997) 7
(0.002 0.01 0.0259997) 8
(0.002 0.014 0.0259997) 8
(0.002 0.018 0.0259997) 8
(0.002 0.022 0.0259997) 9
(0.002 0.026 0.0259997) 9
(0.002 0.03 0.0259997) 10
(0.002 0.034 0.0259997) 10
(0.002 0.038 0.0259997) 10
(0.002 0.042 0.0259997) 11
(0.002 0.046 0.0259997) 11
(0.002 0.05 0.0259997) 11
(0.002 0.054 0.0259997) 12
(0.002 0.058 0.0259997) 12
(0.002 0.062 0.0259997) 13
(0.002 0.066 0.0259997) 13
(0.002 0.07 0.0259997) 13
(0.002 0.074 0.0259997) 351
(0.002 0.078 0.0259997) 351
(0.002 0.082 0.0259997) 407
(0.002 0.086 0.0259997) 407
(0.002 0.09 0.0259998) 408
(0.002 0.094 0.0259997) 408
(0.002 0.098 0.0259997) 408
(0.002 0.102 0.0259997) 409
(0.002 0.106 0.0259997) 409
(0.002 0.11 0.0259997) 410
(0.002 0.114 0.0259997) 410
(0.002 0.118 0.0259997) 410
(0.002 0.122 0.0259997) 411
(0.002 0.126 0.0259997) 411
(0.002 0.13 0.0259997) 411
(0.002 0.134 0.0259997) 412
(0.002 0.138 0.0259997) 412
(0.002 0.142 0.0259997) 413
(0.002 0.146 0.0259997) 413
(0.002 0.00199999 0.0299997) 7
(0.002 0.00600002 0.0299997) 7
(0.002 0.00999997 0.0299997) 7
(0.002 0.014 0.0299997) 8
(0.002 0.018 0.0299997) 8
(0.002 0.022 0.0299997) 9
(0.002 0.026 0.0299997) 9
(0.002 0.03 0.0299997) 9
(0.002 0.034 0.0299997) 10
(0.002 0.038 0.0299997) 10
(0.002 0.042 0.0299997) 11
(0.002 0.046 0.0299997) 11
(0.002 0.05 0.0299996) 11
(0.002 0.054 0.0299997) 12
(0.002 0.058 0.0299997) 12
(0.002 0.062 0.0299997) 13
(0.002 0.066 0.0299997) 13
(0.002 0.07 0.0299997) 351
(0.002 0.074 0.0299997) 351
(0.002 0.078 0.0299997) 351
(0.002 0.082 0.0299997) 407
(0.002 0.086 0.0299997) 407
(0.002 0.09 0.0299997) 407
(0.002 0.094 0.0299997) 408
(0.002 0.098 0.0299997) 408
(0.002 0.102 0.0299997) 409
(0.002 0.106 0.0299997) 409
(0.002 0.11 0.0299998) 410
(0.002 0.114 0.0299997) 410
(0.002 0.118 0.0299997) 410
(0.002 0.122 0.0299997) 411
(0.002 0.126 0.0299997) 411
(0.002 0.13 0.0299997) 412
(0.002 0.134 0.0299997) 412
(0.002 0.138 0.0299997) 412
(0.002 0.142 0.0299997) 413
(0.002 0.146 0.0299997) 413
(0.002 0.002 0.0339997) 7
(0.002 0.006 0.0339997) 7
(0.002 0.01 0.0339997) 7
(0.002 0.014 0.0339997) 8
(0.002 0.018 0.0339997) 8
(0.002 0.022 0.0339997) 9
(0.002 0.026 0.0339997) 9
(0.002 0.03 0.0339997) 9
(0.002 0.034 0.0339997) 10
(0.002 0.038 0.0339997) 10
(0.002 0.042 0.0339997) 11
(0.002 0.046 0.0339997) 11
(0.002 0.05 0.0339997) 11
(0.002 0.054 0.0339997) 12
(0.002 0.058 0.0339997) 12
(0.002 0.062 0.0339997) 13
(0.002 0.066 0.0339997) 13
(0.002 0.07 0.0339997) 351
(0.002 0.074 0.0339997) 351
(0.002 0.078 0.0339997) 351
(0.002 0.082 0.0339997) 407
(0.002 0.086 0.0339997) 407
(0.002 0.09 0.0339997) 407
(0.002 0.094 0.0339997) 408
(0.002 0.098 0.0339997) 408
(0.002 0.102 0.0339997) 409
(0.002 0.106 0.0339997) 409
(0.002 0.11 0.0339997) 410
(0.002 0.114 0.0339997) 410
(0.002 0.118 0.0339997) 410
(0.002 0.122 0.0339997) 411
(0.002 0.126 0.0339997) 411
(0.002 0.13 0.0339997) 412
(0.002 0.134 0.0339997) 412
(0.002 0.138 0.0339997) 412
(0.002 0.142 0.0339997) 413
(0.002 0.146 0.0339997) 413
(0.002 0.002 0.0379997) 7
(0.002 0.006 0.0379997) 7
(0.002 0.00999999 0.0379997) 7
(0.002 0.014 0.0379997) 8
(0.002 0.018 0.0379997) 8
(0.002 0.022 0.0379997) 9
(0.002 0.026 0.0379997) 9
(0.002 0.03 0.0379997) 9
(0.002 0.034 0.0379997) 10
(0.002 0.038 0.0379997) 10
(0.002 0.042 0.0379997) 11
(0.002 0.046 0.0379997) 11
(0.002 0.05 0.0379997) 11
(0.002 0.054 0.0379997) 12
(0.002 0.058 0.0379997) 12
(0.002 0.062 0.0379997) 13
(0.002 0.066 0.0379997) 13
(0.002 0.07 0.0379997) 351
(0.002 0.074 0.0379997) 351
(0.002 0.078 0.0379997) 351
(0.002 0.082 0.0379997) 407
(0.002 0.086 0.0379997) 407
(0.002 0.09 0.0379997) 407
(0.002 0.094 0.0379997) 408
(0.002 0.098 0.0379997) 408
(0.002 0.102 0.0379997) 409
(0.002 0.106 0.0379997) 409
(0.002 0.11 0.0379997) 410
(0.002 0.114 0.0379997) 410
(0.002 0.118 0.0379997) 410
(0.002 0.122 0.0379997) 411
(0.002 0.126 0.0379997) 411
(0.002 0.13 0.0379997) 412
(0.002 0.134 0.0379997) 412
(0.002 0.138 0.0379997) 412
(0.002 0.142 0.0379997) 413
(0.002 0.146 0.0379997) 413
(0.002 0.00199999 0.0419997) 14
(0.002 0.00599999 0.0419997) 14
(0.002 0.01 0.0419997) 15
(0.002 0.014 0.0419997) 15
(0.002 0.018 0.0419997) 15
(0.002 0.022 0.0419997) 16
(0.002 0.026 0.0419997) 16
(0.002 0.03 0.0419998) 17
(0.002 0.034 0.0419997) 17
(0.002 0.038 0.0419997) 17
(0.002 0.042 0.0419997) 18
(0.002 0.046 0.0419997) 18
(0.002 0.05 0.0419997) 18
(0.002 0.054 0.0419997) 19
(0.002 0.058 0.0419997) 19
(0.002 0.062 0.0419997) 20
(0.002 0.066 0.0419997) 20
(0.002 0.07 0.0419997) 352
(0.002 0.074 0.0419997) 352
(0.002 0.078 0.0419997) 352
(0.002 0.082 0.0419997) 414
(0.002 0.086 0.0419997) 414
(0.002 0.09 0.0419997) 414
(0.002 0.094 0.0419997) 415
(0.002 0.098 0.0419997) 415
(0.002 0.102 0.0419997) 416
(0.002 0.106 0.0419997) 416
(0.002 0.11 0.0419997) 417
(0.002 0.114 0.0419997) 417
(0.002 0.118 0.0419997) 417
(0.002 0.122 0.0419997) 418
(0.002 0.126 0.0419997) 418
(0.002 0.13 0.0419997) 419
(0.002 0.134 0.0419997) 419
(0.002 0.138 0.0419997) 419
(0.002 0.142 0.0419997) 420
(0.002 0.146 0.0419997) 420
(0.002 0.00199999 0.0459997) 14
(0.002 0.00599999 0.0459997) 14
(0.002 0.01 0.0459998) 15
(0.002 0.014 0.0459997) 15
(0.002 0.018 0.0459997) 15
(0.002 0.022 0.0459997) 16
(0.002 0.026 0.0459997) 16
(0.002 0.03 0.0459997) 17
(0.002 0.034 0.0459997) 17
(0.002 0.038 0.0459997) 17
(0.002 0.042 0.0459997) 18
(0.002 0.046 0.0459997) 18
(0.002 0.05 0.0459997) 19
(0.002 0.054 0.0459997) 19
(0.002 0.058 0.0459997) 19
(0.002 0.062 0.0459997) 20
(0.002 0.066 0.0459997) 20
(0.002 0.07 0.0459997) 352
(0.002 0.074 0.0459997) 352
(0.002 0.078 0.0459997) 352
(0.002 0.082 0.0459997) 414
(0.002 0.086 0.0459997) 414
(0.002 0.09 0.0459997) 414
(0.002 0.094 0.0459997) 415
(0.002 0.098 0.0459997) 415
(0.002 0.102 0.0459997) 416
(0.002 0.106 0.0459997) 416
(0.002 0.11 0.0459997) 417
(0.002 0.114 0.0459997) 417
(0.002 0.118 0.0459997) 417
(0.002 0.122 0.0459997) 418
(0.002 0.126 0.0459997) 418
(0.002 0.13 0.0459997) 419
(0.002 0.134 0.0459997) 419
(0.002 0.138 0.0459997) 419
(0.002 0.142 0.0459997) 420
(0.002 0.146 0.0459997) 420
(0.002 0.00200001 0.0499997) 14
(0.002 0.00600001 0.0499997) 14
(0.002 0.01 0.0499997) 15
(0.002 0.014 0.0499997) 15
(0.002 0.018 0.0499997) 15
(0.002 0.022 0.0499997) 16
(0.002 0.026 0.0499997) 16
(0.002 0.03 0.0499998) 17
(0.002 0.034 0.0499997) 17
(0.002 0.038 0.0499997) 17
(0.002 0.042 0.0499997) 18
(0.002 0.046 0.0499997) 18
(0.002 0.05 0.0499997) 19
(0.002 0.054 0.0499997) 19
(0.002 0.058 0.0499997) 19
(0.002 0.062 0.0499997) 20
(0.002 0.066 0.0499997) 20
(0.002 0.07 0.0499997) 20
(0.002 0.074 0.0499997) 352
(0.002 0.078 0.0499997) 352
(0.002 0.082 0.0499997) 414
(0.002 0.086 0.0499997) 414
(0.002 0.09 0.0499997) 414
(0.002 0.094 0.0499997) 415
(0.002 0.098 0.0499997) 415
(0.002 0.102 0.0499997) 416
(0.002 0.106 0.0499997) 416
(0.002 0.11 0.0499997) 417
(0.002 0.114 0.0499997) 417
(0.002 0.118 0.0499997) 417
(0.002 0.122 0.0499997) 418
(0.002 0.126 0.0499997) 418
(0.002 0.13 0.0499997) 418
(0.002 0.134 0.0499997) 419
(0.002 0.138 0.0499997) 419
(0.002 0.142 0.0499997) 420
(0.002 0.146 0.0499997) 420
(0.002 0.002 0.0539997) 14
(0.002 0.006 0.0539997) 14
(0.002 0.01 0.0539997) 15
(0.002 0.014 0.0539997) 15
(0.002 0.018 0.0539997) 15
(0.002 0.022 0.0539997) 16
(0.002 0.026 0.0539997) 16
(0.002 0.03 0.0539997) 16
(0.002 0.034 0.0539997) 17
(0.002 0.038 0.0539997) 17
(0.002 0.042 0.0539997) 18
(0.002 0.046 0.0539997) 18
(0.002 0.05 0.0539997) 19
(0.002 0.054 0.0539997) 19
(0.002 0.058 0.0539997) 19
(0.002 0.062 0.0539997) 20
(0.002 0.066 0.0539997) 20
(0.002 0.07 0.0539997) 352
(0.002 0.074 0.0539997) 352
(0.002 0.078 0.0539997) 352
(0.002 0.082 0.0539997) 414
(0.002 0.086 0.0539997) 414
(0.002 0.09 0.0539997) 414
(0.002 0.094 0.0539997) 415
(0.002 0.098 0.0539997) 415
(0.002 0.102 0.0539997) 416
(0.002 0.106 0.0539997) 416
(0.002 0.11 0.0539997) 417
(0.002 0.114 0.0539997) 417
(0.002 0.118 0.0539997) 417
(0.002 0.122 0.0539997) 418
(0.002 0.126 0.0539997) 418
(0.002 0.13 0.0539997) 418
(0.002 0.134 0.0539997) 419
(0.002 0.138 0.0539997) 419
(0.002 0.142 0.0539997) 420
(0.002 0.146 0.0539997) 420
(0.002 0.002 0.0579997) 14
(0.002 0.006 0.0579997) 14
(0.002 0.01 0.0579997) 15
(0.002 0.014 0.0579997) 15
(0.002 0.018 0.0579997) 15
(0.002 0.022 0.0579997) 16
(0.002 0.026 0.0579997) 16
(0.002 0.03 0.0579997) 16
(0.002 0.034 0.0579997) 17
(0.002 0.038 0.0579997) 17
(0.002 0.042 0.0579997) 18
(0.002 0.046 0.0579997) 18
(0.002 0.05 0.0579997) 19
(0.002 0.054 0.0579997) 19
(0.002 0.058 0.0579997) 19
(0.002 0.062 0.0579997) 20
(0.002 0.066 0.0579997) 20
(0.002 0.07 0.0579997) 352
(0.002 0.074 0.0579997) 352
(0.002 0.078 0.0579997) 352
(0.002 0.082 0.0579997) 414
(0.002 0.086 0.0579997) 414
(0.002 0.09 0.0579997) 414
(0.002 0.094 0.0579997) 415
(0.002 0.098 0.0579997) 415
(0.002 0.102 0.0579997) 416
(0.002 0.106 0.0579997) 416
(0.002 0.11 0.0579997) 417
(0.002 0.114 0.0579997) 417
(0.002 0.118 0.0579997) 417
(0.002 0.122 0.0579997) 418
(0.002 0.126 0.0579997) 418
(0.002 0.13 0.0579997) 418
(0.002 0.134 0.0579997) 419
(0.002 0.138 0.0579997) 419
(0.002 0.142 0.0579997) 420
(0.002 0.146 0.0579997) 420
(0.002 0.002 0.0619997) 21
(0.002 0.006 0.0619997) 21
(0.002 0.01 0.0619997) 22
(0.002 0.014 0.0619997) 22
(0.002 0.018 0.0619997) 22
(0.002 0.022 0.0619997) 23
(0.002 0.026 0.0619997) 23
(0.002 0.03 0.0619997) 23
(0.002 0.034 0.0619997) 24
(0.002 0.038 0.0619997) 24
(0.002 0.042 0.0619997) 25
(0.002 0.046 0.0619997) 25
(0.002 0.05 0.0619997) 26
(0.002 0.054 0.0619997) 26
(0.002 0.058 0.0619997) 26
(0.002 0.062 0.0619997) 27
(0.002 0.066 0.0619997) 27
(0.002 0.07 0.0619997) 27
(0.002 0.074 0.0619997) 353
(0.002 0.078 0.0619997) 353
(0.002 0.082 0.0619997) 421
(0.002 0.086 0.0619997) 421
(0.002 0.09 0.0619997) 421
(0.002 0.094 0.0619997) 422
(0.002 0.098 0.0619997) 422
(0.002 0.102 0.0619997) 423
(0.002 0.106 0.0619997) 423
(0.002 0.11 0.0619997) 424
(0.002 0.114 0.0619997) 424
(0.002 0.118 0.0619997) 424
(0.002 0.122 0.0619997) 425
(0.002 0.126 0.0619997) 425
(0.002 0.13 0.0619997) 425
(0.002 0.134 0.0619997) 426
(0.002 0.138 0.0619997) 426
(0.002 0.142 0.0619997) 427
(0.002 0.146 0.0619997) 427
(0.002 0.00199999 0.0659997) 21
(0.002 0.00599999 0.0659997) 21
(0.002 0.01 0.0659997) 22
(0.002 0.014 0.0659997) 22
(0.002 0.018 0.0659997) 22
(0.002 0.022 0.0659997) 23
(0.002 0.026 0.0659997) 23
(0.002 0.03 0.0659997) 24
(0.002 0.034 0.0659997) 24
(0.002 0.038 0.0659997) 24
(0.002 0.042 0.0659997) 25
(0.002 0.046 0.0659997) 25
(0.002 0.05 0.0659997) 26
(0.002 0.054 0.0659997) 26
(0.002 0.058 0.0659997) 26
(0.002 0.062 0.0659997) 27
(0.002 0.066 0.0659997) 27
(0.002 0.07 0.0659997) 27
(0.002 0.074 0.0659997) 353
(0.002 0.078 0.0659997) 353
(0.002 0.082 0.0659997) 421
(0.002 0.086 0.0659997) 421
(0.002 0.09 0.0659997) 421
(0.002 0.094 0.0659997) 422
(0.002 0.098 0.0659997) 422
(0.002 0.102 0.0659997) 423
(0.002 0.106 0.0659997) 423
(0.002 0.11 0.0659997) 424
(0.002 0.114 0.0659997) 424
(0.002 0.118 0.0659997) 424
(0.002 0.122 0.0659997) 425
(0.002 0.126 0.0659997) 425
(0.002 0.13 0.0659997) 425
(0.002 0.134 0.0659997) 426
(0.002 0.138 0.0659997) 426
(0.002 0.142 0.0659997) 427
(0.002 0.146 0.0659997) 427
(0.002 0.00199999 0.0699997) 21
(0.002 0.00600001 0.0699997) 21
(0.002 0.01 0.0699997) 22
(0.002 0.014 0.0699997) 22
(0.002 0.018 0.0699997) 22
(0.002 0.022 0.0699997) 23
(0.002 0.026 0.0699997) 23
(0.002 0.03 0.0699997) 24
(0.002 0.034 0.0699997) 24
(0.002 0.038 0.0699997) 24
(0.002 0.042 0.0699997) 25
(0.002 0.046 0.0699997) 25
(0.002 0.05 0.0699997) 26
(0.002 0.054 0.0699997) 26
(0.002 0.058 0.0699997) 26
(0.002 0.062 0.0699997) 27
(0.002 0.066 0.0699997) 27
(0.002 0.07 0.0699997) 27
(0.002 0.074 0.0699997) 353
(0.002 0.078 0.0699997) 353
(0.002 0.082 0.0699997) 421
(0.002 0.086 0.0699997) 421
(0.002 0.09 0.0699997) 421
(0.002 0.094 0.0699997) 422
(0.002 0.098 0.0699997) 422
(0.002 0.102 0.0699997) 423
(0.002 0.106 0.0699997) 423
(0.002 0.11 0.0699997) 424
(0.002 0.114 0.0699997) 424
(0.002 0.118 0.0699997) 424
(0.002 0.122 0.0699997) 425
(0.002 0.126 0.0699997) 425
(0.002 0.13 0.0699997) 425
(0.002 0.134 0.0699997) 426
(0.002 0.138 0.0699997) 426
(0.002 0.142 0.0699997) 427
(0.002 0.146 0.0699997) 427
(0.002 0.002 0.0739997) 21
(0.002 0.006 0.0739997) 21
(0.002 0.01 0.0739997) 21
(0.002 0.014 0.0739997) 22
(0.002 0.018 0.0739997) 22
(0.002 0.022 0.0739997) 23
(0.002 0.026 0.0739997) 23
(0.002 0.03 0.0739997) 24
(0.002 0.034 0.0739997) 24
(0.002 0.038 0.0739997) 24
(0.002 0.042 0.0739997) 25
(0.002 0.046 0.0739997) 25
(0.002 0.05 0.0739997) 25
(0.002 0.054 0.0739997) 26
(0.002 0.058 0.0739997) 26
(0.002 0.062 0.0739997) 27
(0.002 0.066 0.0739997) 27
(0.002 0.07 0.0739997) 27
(0.002 0.074 0.0739997) 353
(0.002 0.078 0.0739997) 353
(0.002 0.082 0.0739997) 421
(0.002 0.086 0.0739997) 421
(0.002 0.09 0.0739997) 421
(0.002 0.094 0.0739997) 422
(0.002 0.098 0.0739997) 422
(0.002 0.102 0.0739997) 423
(0.002 0.106 0.0739997) 423
(0.002 0.11 0.0739997) 424
(0.002 0.114 0.0739997) 424
(0.002 0.118 0.0739997) 424
(0.002 0.122 0.0739997) 425
(0.002 0.126 0.0739997) 425
(0.002 0.13 0.0739997) 425
(0.002 0.134 0.0739997) 426
(0.002 0.138 0.0739997) 426
(0.002 0.142 0.0739997) 427
(0.002 0.146 0.0739997) 427
(0.002 0.002 0.0779997) 21
(0.002 0.006 0.0779997) 21
(0.002 0.01 0.0779997) 21
(0.002 0.014 0.0779997) 22
(0.002 0.018 0.0779997) 22
(0.002 0.022 0.0779997) 23
(0.002 0.026 0.0779997) 23
(0.002 0.03 0.0779997) 24
(0.002 0.034 0.0779997) 24
(0.002 0.038 0.0779997) 24
(0.002 0.042 0.0779997) 25
(0.002 0.046 0.0779997) 25
(0.002 0.05 0.0779997) 25
(0.002 0.054 0.0779997) 26
(0.002 0.058 0.0779997) 26
(0.002 0.062 0.0779997) 27
(0.002 0.066 0.0779997) 27
(0.002 0.07 0.0779997) 27
(0.002 0.074 0.0779997) 353
(0.002 0.078 0.0779997) 353
(0.002 0.082 0.0779997) 421
(0.002 0.086 0.0779997) 421
(0.002 0.09 0.0779997) 422
(0.002 0.094 0.0779997) 422
(0.002 0.098 0.0779997) 422
(0.002 0.102 0.0779997) 423
(0.002 0.106 0.0779997) 423
(0.002 0.11 0.0779997) 424
(0.002 0.114 0.0779997) 424
(0.002 0.118 0.0779997) 424
(0.002 0.122 0.0779997) 425
(0.002 0.126 0.0779997) 425
(0.002 0.13 0.0779997) 425
(0.002 0.134 0.0779997) 426
(0.002 0.138 0.0779997) 426
(0.002 0.142 0.0779997) 427
(0.002 0.146 0.0779997) 427
(0.002 0.002 0.0819997) 28
(0.002 0.006 0.0819997) 28
(0.002 0.01 0.0819997) 28
(0.002 0.014 0.0819997) 29
(0.002 0.018 0.0819997) 29
(0.002 0.022 0.0819997) 30
(0.002 0.026 0.0819997) 30
(0.002 0.03 0.0819997) 31
(0.002 0.034 0.0819997) 31
(0.002 0.038 0.0819997) 31
(0.002 0.042 0.0819997) 32
(0.002 0.046 0.0819997) 32
(0.002 0.05 0.0819997) 33
(0.002 0.054 0.0819997) 33
(0.002 0.058 0.0819997) 33
(0.002 0.062 0.0819997) 34
(0.002 0.066 0.0819997) 34
(0.002 0.07 0.0819997) 34
(0.002 0.074 0.0819997) 354
(0.002 0.078 0.0819997) 354
(0.002 0.082 0.0819997) 428
(0.002 0.086 0.0819997) 428
(0.002 0.09 0.0819997) 429
(0.002 0.094 0.0819997) 429
(0.002 0.098 0.0819997) 429
(0.002 0.102 0.0819997) 430
(0.002 0.106 0.0819997) 430
(0.002 0.11 0.0819997) 431
(0.002 0.114 0.0819997) 431
(0.002 0.118 0.0819997) 431
(0.002 0.122 0.0819997) 432
(0.002 0.126 0.0819997) 432
(0.002 0.13 0.0819997) 432
(0.002 0.134 0.0819997) 433
(0.002 0.138 0.0819997) 433
(0.002 0.142 0.0819997) 434
(0.002 0.146 0.0819997) 434
(0.002 0.002 0.0859997) 28
(0.002 0.00599999 0.0859997) 28
(0.002 0.01 0.0859997) 28
(0.002 0.014 0.0859997) 29
(0.002 0.018 0.0859997) 29
(0.002 0.022 0.0859997) 30
(0.002 0.026 0.0859997) 30
(0.002 0.03 0.0859997) 30
(0.002 0.034 0.0859997) 31
(0.002 0.038 0.0859997) 31
(0.002 0.042 0.0859997) 32
(0.002 0.046 0.0859997) 32
(0.002 0.05 0.0859997) 32
(0.002 0.054 0.0859997) 33
(0.002 0.058 0.0859997) 33
(0.002 0.062 0.0859997) 34
(0.002 0.066 0.0859997) 34
(0.002 0.07 0.0859997) 34
(0.002 0.074 0.0859997) 354
(0.002 0.078 0.0859997) 354
(0.002 0.082 0.0859997) 428
(0.002 0.086 0.0859997) 428
(0.002 0.09 0.0859997) 429
(0.002 0.094 0.0859997) 429
(0.002 0.098 0.0859997) 429
(0.002 0.102 0.0859997) 430
(0.002 0.106 0.0859997) 430
(0.002 0.11 0.0859997) 430
(0.002 0.114 0.0859997) 431
(0.002 0.118 0.0859997) 431
(0.002 0.122 0.0859997) 432
(0.002 0.126 0.0859997) 432
(0.002 0.13 0.0859997) 433
(0.002 0.134 0.0859997) 433
(0.002 0.138 0.0859997) 433
(0.002 0.142 0.0859997) 434
(0.002 0.146 0.0859997) 434
(0.002 0.002 0.0899997) 28
(0.002 0.00600001 0.0899997) 28
(0.002 0.01 0.0899997) 29
(0.002 0.014 0.0899997) 29
(0.002 0.018 0.0899997) 29
(0.002 0.022 0.0899997) 30
(0.002 0.026 0.0899997) 30
(0.002 0.03 0.0899997) 31
(0.002 0.034 0.0899997) 31
(0.002 0.038 0.0899997) 31
(0.002 0.042 0.0899997) 32
(0.002 0.046 0.0899997) 32
(0.002 0.05 0.0899997) 33
(0.002 0.054 0.0899997) 33
(0.002 0.058 0.0899997) 33
(0.002 0.062 0.0899997) 34
(0.002 0.066 0.0899997) 34
(0.002 0.07 0.0899997) 354
(0.002 0.074 0.0899997) 354
(0.002 0.078 0.0899997) 354
(0.002 0.082 0.0899997) 428
(0.002 0.086 0.0899997) 428
(0.002 0.09 0.0899997) 428
(0.002 0.094 0.0899997) 429
(0.002 0.098 0.0899997) 429
(0.002 0.102 0.0899997) 430
(0.002 0.106 0.0899997) 430
(0.002 0.11 0.0899997) 431
(0.002 0.114 0.0899997) 431
(0.002 0.118 0.0899997) 431
(0.002 0.122 0.0899997) 432
(0.002 0.126 0.0899997) 432
(0.002 0.13 0.0899997) 432
(0.002 0.134 0.0899997) 433
(0.002 0.138 0.0899997) 433
(0.002 0.142 0.0899997) 434
(0.002 0.146 0.0899997) 434
(0.002 0.002 0.0939997) 28
(0.002 0.00599999 0.0939997) 28
(0.002 0.01 0.0939997) 29
(0.002 0.014 0.0939997) 29
(0.002 0.018 0.0939997) 29
(0.002 0.022 0.0939997) 30
(0.002 0.026 0.0939997) 30
(0.002 0.03 0.0939997) 30
(0.002 0.034 0.0939997) 31
(0.002 0.038 0.0939997) 31
(0.002 0.042 0.0939997) 32
(0.002 0.046 0.0939997) 32
(0.002 0.05 0.0939997) 32
(0.002 0.054 0.0939997) 33
(0.002 0.058 0.0939997) 33
(0.002 0.062 0.0939997) 34
(0.002 0.066 0.0939997) 34
(0.002 0.07 0.0939997) 354
(0.002 0.074 0.0939997) 354
(0.002 0.078 0.0939997) 354
(0.002 0.082 0.0939997) 428
(0.002 0.086 0.0939997) 428
(0.002 0.09 0.0939996) 429
(0.002 0.094 0.0939997) 429
(0.002 0.098 0.0939997) 429
(0.002 0.102 0.0939997) 430
(0.002 0.106 0.0939997) 430
(0.002 0.11 0.0939998) 431
(0.002 0.114 0.0939997) 431
(0.002 0.118 0.0939997) 431
(0.002 0.122 0.0939997) 432
(0.002 0.126 0.0939997) 432
(0.002 0.13 0.0939997) 432
(0.002 0.134 0.0939997) 433
(0.002 0.138 0.0939997) 433
(0.002 0.142 0.0939997) 434
(0.002 0.146 0.0939997) 434
(0.002 0.002 0.0979997) 28
(0.002 0.00599999 0.0979997) 28
(0.002 0.01 0.0979997) 29
(0.002 0.014 0.0979997) 29
(0.002 0.018 0.0979997) 29
(0.002 0.022 0.0979997) 30
(0.002 0.026 0.0979997) 30
(0.002 0.03 0.0979997) 30
(0.002 0.034 0.0979997) 31
(0.002 0.038 0.0979997) 31
(0.002 0.042 0.0979997) 32
(0.002 0.046 0.0979997) 32
(0.002 0.05 0.0979997) 32
(0.002 0.054 0.0979997) 33
(0.002 0.058 0.0979997) 33
(0.002 0.062 0.0979997) 34
(0.002 0.066 0.0979997) 34
(0.002 0.07 0.0979997) 354
(0.002 0.074 0.0979997) 354
(0.002 0.078 0.0979997) 354
(0.002 0.082 0.0979997) 428
(0.002 0.086 0.0979997) 428
(0.002 0.09 0.0979997) 428
(0.002 0.094 0.0979997) 429
(0.002 0.098 0.0979997) 429
(0.002 0.102 0.0979997) 430
(0.002 0.106 0.0979997) 430
(0.002 0.11 0.0979997) 430
(0.002 0.114 0.0979997) 431
(0.002 0.118 0.0979997) 431
(0.002 0.122 0.0979997) 432
(0.002 0.126 0.0979997) 432
(0.002 0.13 0.0979997) 432
(0.002 0.134 0.0979997) 433
(0.002 0.138 0.0979997) 433
(0.002 0.142 0.0979997) 434
(0.002 0.146 0.0979997) 434
(0.002 0.002 0.102) 35
(0.002 0.006 0.102) 35
(0.002 0.01 0.102) 35
(0.002 0.014 0.102) 36
(0.002 0.018 0.102) 36
(0.002 0.022 0.102) 37
(0.002 0.026 0.102) 37
(0.002 0.03 0.102) 38
(0.002 0.034 0.102) 38
(0.002 0.038 0.102) 38
(0.002 0.042 0.102) 39
(0.002 0.046 0.102) 39
(0.002 0.05 0.102) 40
(0.002 0.054 0.102) 40
(0.002 0.058 0.102) 40
(0.002 0.062 0.102) 41
(0.002 0.066 0.102) 41
(0.002 0.07 0.102) 41
(0.002 0.074 0.102) 355
(0.002 0.078 0.102) 355
(0.002 0.082 0.102) 435
(0.002 0.086 0.102) 435
(0.002 0.09 0.102) 436
(0.002 0.094 0.102) 436
(0.002 0.098 0.102) 436
(0.002 0.102 0.102) 437
(0.002 0.106 0.102) 437
(0.002 0.11 0.102) 438
(0.002 0.114 0.102) 438
(0.002 0.118 0.102) 438
(0.002 0.122 0.102) 439
(0.002 0.126 0.102) 439
(0.002 0.13 0.102) 439
(0.002 0.134 0.102) 440
(0.002 0.138 0.102) 440
(0.002 0.142 0.102) 441
(0.002 0.146 0.102) 441
(0.002 0.002 0.106) 35
(0.002 0.006 0.106) 35
(0.002 0.01 0.106) 36
(0.002 0.014 0.106) 36
(0.002 0.018 0.106) 36
(0.002 0.022 0.106) 37
(0.002 0.026 0.106) 37
(0.002 0.03 0.106) 38
(0.002 0.034 0.106) 38
(0.002 0.038 0.106) 38
(0.002 0.042 0.106) 39
(0.002 0.046 0.106) 39
(0.002 0.05 0.106) 39
(0.002 0.054 0.106) 40
(0.002 0.058 0.106) 40
(0.002 0.062 0.106) 41
(0.002 0.066 0.106) 41
(0.002 0.07 0.106) 355
(0.002 0.074 0.106) 355
(0.002 0.078 0.106) 355
(0.002 0.082 0.106) 435
(0.002 0.086 0.106) 435
(0.002 0.09 0.106) 436
(0.002 0.094 0.106) 436
(0.002 0.098 0.106) 436
(0.002 0.102 0.106) 437
(0.002 0.106 0.106) 437
(0.002 0.11 0.106) 438
(0.002 0.114 0.106) 438
(0.002 0.118 0.106) 438
(0.002 0.122 0.106) 439
(0.002 0.126 0.106) 439
(0.002 0.13 0.106) 440
(0.002 0.134 0.106) 440
(0.002 0.138 0.106) 440
(0.002 0.142 0.106) 441
(0.002 0.146 0.106) 441
(0.002 0.00199999 0.11) 35
(0.002 0.00600002 0.11) 35
(0.002 0.00999997 0.11) 35
(0.002 0.014 0.11) 36
(0.002 0.018 0.11) 36
(0.002 0.022 0.11) 37
(0.002 0.026 0.11) 37
(0.002 0.03 0.11) 38
(0.002 0.034 0.11) 38
(0.002 0.038 0.11) 38
(0.002 0.042 0.11) 39
(0.002 0.046 0.11) 39
(0.002 0.05 0.11) 40
(0.002 0.054 0.11) 40
(0.002 0.058 0.11) 40
(0.002 0.062 0.11) 41
(0.002 0.066 0.11) 41
(0.002 0.07 0.11) 41
(0.002 0.074 0.11) 355
(0.002 0.078 0.11) 355
(0.002 0.082 0.11) 435
(0.002 0.086 0.11) 435
(0.002 0.09 0.11) 435
(0.002 0.094 0.11) 436
(0.002 0.098 0.11) 436
(0.002 0.102 0.11) 437
(0.002 0.106 0.11) 437
(0.002 0.11 0.11) 437
(0.002 0.114 0.11) 438
(0.002 0.118 0.11) 438
(0.002 0.122 0.11) 439
(0.002 0.126 0.11) 439
(0.002 0.13 0.11) 439
(0.002 0.134 0.11) 440
(0.002 0.138 0.11) 440
(0.002 0.142 0.11) 441
(0.002 0.146 0.11) 441
(0.002 0.002 0.114) 35
(0.002 0.006 0.114) 35
(0.002 0.01 0.114) 35
(0.002 0.014 0.114) 36
(0.002 0.018 0.114) 36
(0.002 0.022 0.114) 37
(0.002 0.026 0.114) 37
(0.002 0.03 0.114) 38
(0.002 0.034 0.114) 38
(0.002 0.038 0.114) 38
(0.002 0.042 0.114) 39
(0.002 0.046 0.114) 39
(0.002 0.05 0.114) 40
(0.002 0.054 0.114) 40
(0.002 0.058 0.114) 40
(0.002 0.062 0.114) 41
(0.002 0.066 0.114) 41
(0.002 0.07 0.114) 355
(0.002 0.074 0.114) 355
(0.002 0.078 0.114) 355
(0.002 0.082 0.114) 435
(0.002 0.086 0.114) 435
(0.002 0.09 0.114) 435
(0.002 0.094 0.114) 436
(0.002 0.098 0.114) 436
(0.002 0.102 0.114) 437
(0.002 0.106 0.114) 437
(0.002 0.11 0.114) 437
(0.002 0.114 0.114) 438
(0.002 0.118 0.114) 438
(0.002 0.122 0.114) 439
(0.002 0.126 0.114) 439
(0.002 0.13 0.114) 439
(0.002 0.134 0.114) 440
(0.002 0.138 0.114) 440
(0.002 0.142 0.114) 441
(0.002 0.146 0.114) 441
(0.002 0.002 0.118) 35
(0.002 0.006 0.118) 35
(0.002 0.00999999 0.118) 35
(0.002 0.014 0.118) 36
(0.002 0.018 0.118) 36
(0.002 0.022 0.118) 37
(0.002 0.026 0.118) 37
(0.002 0.03 0.118) 38
(0.002 0.034 0.118) 38
(0.002 0.038 0.118) 38
(0.002 0.042 0.118) 39
(0.002 0.046 0.118) 39
(0.002 0.05 0.118) 40
(0.002 0.054 0.118) 40
(0.002 0.058 0.118) 40
(0.002 0.062 0.118) 41