/*--------------------------------*- C++ -*----------------------------------*\
| =========                 |                                                 |
| \\      /  F ield         | OpenFOAM: The Open Source CFD Toolbox           |
|  \\    /   O peration     | Version:  2.2.x                                 |
|   \\  /    A nd           | Web:      www.OpenFOAM.org                      |
|    \\/     M anipulation  |                                                 |
\*---------------------------------------------------------------------------*/
FoamFile
{
    version     2.0;
    format      ascii;
    class       polyBoundaryMesh;
    location    "constant/polyMesh";
    object      boundary;
}
// * * * * * * * * * * * * * * * * * * * * * * * * * * * * * * * * * * * * * //

4
(
    outlet
    {
        type            wall;
        nFaces          15;
        startFace       1435;
    }
    inlet
    {
        type            wall;
        nFaces          1;
        startFace       1450;
    }
    fixedWalls
    {
        type            wall;
        nFaces          114;
        startFace       1451;
    }
    emptyWalls
    {
        type            empty;
        inGroups        1(empty);
        nFaces          1500;
        startFace       1565;
    }
)

// ************************************************************************* //
