/*--------------------------------*- C++ -*----------------------------------*\
| =========                 |                                                 |
| \\      /  F ield         | OpenFOAM: The Open Source CFD Toolbox           |
|  \\    /   O peration     | Version:  2.2.1                                 |
|   \\  /    A nd           | Web:      www.OpenFOAM.org                      |
|    \\/     M anipulation  |                                                 |
\*---------------------------------------------------------------------------*/
FoamFile
{
    version     2.0;
    format      ascii;
    class       vectorField;
    object      kinematicCloudPositions;
}
// * * * * * * * * * * * * * * * * * * * * * * * * * * * * * * * * * * * * * //


(
(0.0409882 0.0405363 0.0622004)
(0.0346068 0.0475395 0.0514976)
(0.0478162 0.0417869 0.0719797)
(0.0494008 0.0427974 0.0600282)
(0.0394373 0.0431035 0.0648011)
(0.0510764 0.0532443 0.069398)
(0.041321 0.0469451 0.0592498)
(0.0462055 0.0494334 0.0620933)
(0.038426 0.0511399 0.0677979)
(0.0501186 0.048213 0.0562686)
(0.0453674 0.0465658 0.0647553)
(0.0493123 0.0570971 0.0560528)
(0.0398755 0.054817 0.0544004)
(0.0416657 0.0358841 0.0613353)
(0.049492 0.0544534 0.064733)
(0.0386609 0.0511542 0.0554902)
(0.0429157 0.0379318 0.0574793)
(0.0372374 0.0448603 0.0593774)
(0.0421046 0.0508357 0.0516693)
(0.0425109 0.0433334 0.0539151)
(0.0516555 0.038586 0.0653037)
(0.0462424 0.0386533 0.0644224)
(0.0458444 0.0481988 0.0536881)
(0.0417005 0.053913 0.0555458)
(0.054072 0.043666 0.0666365)
(0.0459747 0.0455447 0.0516877)
(0.046794 0.0438463 0.0722742)
(0.0372552 0.0532892 0.0557625)
(0.0376643 0.0399751 0.0683861)
(0.050558 0.047979 0.0672228)
(0.0443866 0.0540143 0.0617394)
(0.0466066 0.0577894 0.0579574)
(0.0539131 0.0494869 0.0557429)
(0.043253 0.0432198 0.0626355)
(0.038745 0.0403527 0.0564192)
(0.043541 0.0460991 0.0603938)
(0.0404438 0.0462097 0.0692845)
(0.0406923 0.0444116 0.062056)
(0.0400729 0.0499977 0.0669254)
(0.0427044 0.032857 0.0580433)
(0.0518726 0.0347731 0.0534225)
(0.0314839 0.0443207 0.0580714)
(0.0560997 0.0379621 0.0596077)
(0.0338382 0.0424396 0.0520946)
(0.0566779 0.0451223 0.0654886)
(0.0479016 0.0385536 0.050215)
(0.037944 0.0493292 0.0599994)
(0.0404184 0.0387303 0.0630114)
(0.0555212 0.051955 0.0647728)
(0.0506792 0.0486022 0.0525438)
(0.0466899 0.0548835 0.054077)
(0.0500334 0.0458669 0.0580258)
(0.0463553 0.0446536 0.0546789)
(0.0386333 0.0488213 0.0697492)
(0.041007 0.0545694 0.0667028)
(0.0498485 0.0331698 0.0650587)
(0.0408606 0.0460282 0.072681)
(0.0527483 0.0514781 0.0606662)
(0.0494483 0.055153 0.0540007)
(0.0465481 0.0340163 0.061133)
(0.0391049 0.0333327 0.0581733)
(0.0360997 0.037673 0.0593741)
(0.0401643 0.0526255 0.0585378)
(0.0469402 0.049014 0.0501485)
(0.0518449 0.0436034 0.0600622)
(0.0428296 0.0533603 0.0602904)
(0.0360802 0.0445123 0.0706229)
(0.0528329 0.0417361 0.0557272)
(0.0432946 0.0336415 0.0605235)
(0.0480346 0.0334223 0.0631169)
(0.0566516 0.0382702 0.063335)
(0.037032 0.0535598 0.0673932)
(0.0382734 0.0541341 0.0582605)
(0.0513103 0.0436612 0.0510435)
(0.0510249 0.0424998 0.0708372)
(0.0449309 0.0439549 0.0659562)
(0.0404692 0.0370174 0.0525288)
(0.0375357 0.0534037 0.0622247)
(0.0534954 0.0360809 0.0546104)
(0.0529939 0.0509713 0.0511287)
(0.0509 0.0358549 0.0653367)
(0.0438901 0.0509905 0.0603647)
(0.0527339 0.0460471 0.0662204)
(0.0454032 0.0464269 0.056214)
(0.0429049 0.0576732 0.0647514)
(0.0422394 0.0391775 0.0481673)
(0.0431034 0.0467919 0.0720772)
(0.0581371 0.0478037 0.0604007)
(0.0390876 0.044928 0.0510748)
(0.0444436 0.0456597 0.049753)
(0.0483546 0.0355756 0.0654368)
(0.053124 0.0544468 0.0643658)
(0.0430687 0.0324283 0.0548121)
(0.0429971 0.0491963 0.0492447)
(0.0404568 0.0347933 0.0551047)
(0.0429357 0.0425978 0.0691257)
(0.0463518 0.046292 0.0702459)
(0.0474509 0.0538927 0.0696398)
(0.0542148 0.0501735 0.0677657)
(0.0499042 0.0475513 0.0491742)
(0.0538605 0.0415873 0.057457)
(0.0395019 0.0413646 0.0505231)
(0.0358959 0.0371123 0.0570086)
(0.0451887 0.0381122 0.0481563)
(0.0520872 0.051168 0.0659224)
(0.053886 0.0487328 0.0640747)
(0.0461416 0.0468183 0.0476266)
(0.0522185 0.0412651 0.0635992)
(0.0443576 0.0477022 0.0467307)
(0.0433255 0.0547535 0.0579829)
(0.054805 0.0438638 0.0636652)
(0.0397293 0.0346634 0.0531836)
(0.0350675 0.0524524 0.0583186)
(0.0534728 0.0427811 0.0505727)
(0.0411188 0.0486144 0.054618)
(0.0463057 0.0346969 0.0679238)
(0.0386908 0.0466542 0.0603026)
(0.042065 0.0474039 0.0655145)
(0.0456714 0.0515074 0.0636833)
(0.0495708 0.0538399 0.0517917)
(0.0378951 0.039616 0.0620931)
(0.0337985 0.0526688 0.063344)
(0.0378324 0.0444296 0.061994)
(0.0464146 0.0523912 0.0572779)
(0.0493882 0.0580063 0.0589591)
(0.0459817 0.0504266 0.0546513)
(0.0442634 0.0496569 0.0569846)
(0.0547098 0.044164 0.0688842)
(0.0443384 0.0492504 0.0667949)
(0.0375802 0.0514344 0.0523764)
(0.0323421 0.0480497 0.0613767)
(0.0427458 0.0409801 0.0513067)
(0.0439607 0.0532726 0.0655878)
(0.0460979 0.0448591 0.0636929)
(0.0551782 0.0517323 0.0537159)
(0.034892 0.0465972 0.0574884)
(0.0374653 0.0447662 0.0482219)
(0.0552608 0.0384863 0.0667684)
(0.0441301 0.0468335 0.0529093)
(0.0358541 0.040301 0.0522689)
(0.0353095 0.0445834 0.0542984)
(0.0406429 0.0524122 0.0543126)
(0.0371744 0.051011 0.0607705)
(0.0517106 0.0380663 0.0560398)
(0.0331985 0.04039 0.0638989)
(0.04156 0.0457303 0.0477655)
(0.03393 0.0463716 0.0556856)
(0.0363484 0.0470505 0.0662465)
(0.0551128 0.0521429 0.0561348)
(0.0438563 0.0394928 0.0724039)
(0.0515352 0.0501731 0.0619748)
(0.0497556 0.0346408 0.0538281)
(0.0359134 0.0486209 0.052622)
(0.0514911 0.0569827 0.0615328)
(0.0324741 0.0480548 0.0638366)
(0.0397602 0.0353238 0.0617799)
(0.0478185 0.0355629 0.0561984)
(0.045193 0.0418276 0.0708258)
(0.0479908 0.0495588 0.0673996)
(0.0472251 0.0413228 0.0546491)
(0.05599 0.0404862 0.0627608)
(0.0432214 0.055361 0.0553876)
(0.0333088 0.0515294 0.059892)
(0.0418484 0.0464601 0.0535806)
(0.0489346 0.0531779 0.0613991)
(0.0445697 0.0484248 0.0610529)
(0.0444598 0.0394238 0.0602325)
(0.0561799 0.0429507 0.0612036)
(0.0386301 0.0360547 0.0519835)
(0.0446755 0.034628 0.0568928)
(0.0472058 0.038346 0.0601886)
(0.0466806 0.0488364 0.070457)
(0.041387 0.0573512 0.0601879)
(0.0562714 0.041836 0.0568983)
(0.0429305 0.044494 0.0514475)
(0.0486165 0.0373426 0.0644151)
(0.0391531 0.0565513 0.0636328)
(0.0525279 0.0469034 0.0693185)
(0.0574035 0.0480412 0.0635102)
(0.0416925 0.0558394 0.0519902)
(0.0523457 0.0538312 0.0673586)
(0.0354026 0.0443725 0.0682332)
(0.0484779 0.050717 0.0602604)
(0.0522766 0.038109 0.0694835)
(0.0487097 0.0428828 0.0646105)
(0.0403542 0.0397256 0.0717112)
(0.0441999 0.0395277 0.0499446)
(0.0453681 0.0369668 0.0541311)
(0.0398677 0.0473266 0.0567278)
(0.0429492 0.0485242 0.0694173)
(0.0463984 0.0512901 0.0511985)
(0.037557 0.0423282 0.0546505)
(0.0353907 0.0426762 0.0502933)
(0.0440682 0.0395694 0.0655561)
(0.0384416 0.0479549 0.0497704)
(0.044202 0.058607 0.0581857)
(0.0345087 0.048653 0.0559957)
(0.0315867 0.04334 0.0633994)
(0.0486709 0.0396545 0.069404)
(0.0526261 0.0360488 0.0575021)
(0.0458344 0.0534734 0.0596735)
(0.0359314 0.0509258 0.0565928)
(0.0396914 0.0513323 0.0654309)
(0.0462125 0.0429757 0.0485469)
(0.0551347 0.046841 0.0507704)
(0.0533759 0.0395469 0.062614)
(0.0405916 0.0416127 0.0674257)
(0.0426327 0.0410555 0.0671339)
(0.0458405 0.0539639 0.0651896)
(0.0505396 0.0390341 0.0588082)
(0.0521872 0.0514227 0.0537126)
(0.0366122 0.039149 0.0655799)
(0.0441318 0.051253 0.0670975)
(0.0442892 0.0364463 0.0620789)
(0.0430576 0.0422759 0.0722303)
(0.0492268 0.0563507 0.065641)
(0.0384681 0.0521146 0.0575181)
(0.0370739 0.0459256 0.0638244)
(0.0426025 0.0389046 0.0614799)
(0.0355443 0.05007 0.0686174)
(0.0442062 0.0458769 0.0664052)
(0.03708 0.0401616 0.0542363)
(0.0456761 0.0412527 0.0517654)
(0.055471 0.0463845 0.0596439)
(0.0430401 0.0518945 0.0484341)
(0.0527166 0.0447627 0.0701941)
(0.0503258 0.0405985 0.0605957)
(0.0370815 0.0494636 0.0644402)
(0.0448137 0.0490013 0.0733337)
(0.0567082 0.0474188 0.0530827)
(0.0519732 0.0369274 0.0611836)
(0.0545739 0.047728 0.0577918)
(0.0424154 0.0365185 0.0554086)
(0.0490794 0.0557843 0.0604618)
(0.0525813 0.0408498 0.0659025)
(0.0469555 0.0528827 0.061343)
(0.053479 0.0408458 0.050062)
(0.0469176 0.0574679 0.055091)
(0.0510518 0.0362674 0.054864)
(0.0472184 0.0335471 0.0553886)
(0.0457846 0.0589626 0.060259)
(0.0510053 0.0410207 0.0682172)
(0.0357035 0.0400199 0.0627002)
(0.0376955 0.0478441 0.0519955)
(0.0357215 0.0398938 0.0577364)
(0.0361057 0.0442344 0.0658376)
(0.0438712 0.0324717 0.0632159)
(0.0369562 0.041303 0.0609338)
(0.0519951 0.0389679 0.0536809)
(0.0438982 0.0482377 0.0546978)
(0.0540754 0.0362637 0.060112)
(0.0542174 0.0377715 0.0640298)
(0.0460234 0.0585422 0.0628528)
(0.0520441 0.0532709 0.0616542)
(0.0495417 0.0408651 0.0510027)
(0.0360754 0.042566 0.0590484)
(0.0534939 0.0422807 0.0608997)
(0.0441991 0.0378919 0.0698272)
(0.0524652 0.0410399 0.070104)
(0.055671 0.0506673 0.0615666)
(0.0352796 0.035192 0.059128)
(0.0487151 0.0541461 0.0581879)
(0.0427035 0.0574315 0.0554906)
(0.0444595 0.0527146 0.0517871)
(0.0361306 0.0505374 0.0658945)
(0.0350773 0.0460168 0.0637137)
(0.0377909 0.0375822 0.0609581)
(0.0508401 0.0425849 0.0533606)
(0.0464207 0.043711 0.0601219)
(0.0509418 0.0487225 0.0703106)
(0.0357484 0.0542018 0.0567759)
(0.0427549 0.0454675 0.067806)
(0.0414153 0.0383876 0.0551145)
(0.0401073 0.0437316 0.0687165)
(0.0471846 0.0429347 0.061915)
(0.0469487 0.0370459 0.0661684)
(0.0481405 0.0409927 0.0667028)
(0.0411853 0.051687 0.0712744)
(0.0505082 0.0563521 0.0584767)
(0.0507422 0.0415865 0.0480452)
(0.0443683 0.0364772 0.066431)
(0.043661 0.0387008 0.0552285)
(0.0418265 0.0458011 0.0636385)
(0.0326919 0.0485627 0.05766)
(0.0421499 0.0381225 0.0640766)
(0.0489374 0.0516669 0.0629149)
(0.0499153 0.0483292 0.0588601)
(0.0384567 0.0358819 0.0554294)
(0.0432053 0.0520949 0.0552975)
(0.0429495 0.0503375 0.0656251)
(0.0566732 0.0404027 0.0552249)
(0.0535623 0.0448365 0.059193)
(0.0499427 0.052344 0.0497142)
(0.0451932 0.032508 0.0606312)
(0.0508918 0.0472027 0.0648517)
(0.0410256 0.0514555 0.0496181)
(0.0581616 0.0466856 0.0560566)
(0.0370938 0.0452834 0.0535673)
(0.0485845 0.0431712 0.0581537)
(0.0408115 0.0348792 0.0578125)
(0.0529892 0.0344441 0.0615345)
(0.0477247 0.0440118 0.0675137)
(0.0496889 0.0433099 0.0494457)
(0.0582784 0.0470501 0.0585406)
(0.0402085 0.0328942 0.0613057)
(0.0418278 0.0353562 0.051152)
(0.0374281 0.0485862 0.0574197)
(0.0451533 0.0344859 0.0509529)
(0.0464183 0.0355023 0.0631277)
(0.0481551 0.0465425 0.0495957)
(0.0481314 0.0350561 0.058983)
(0.0485802 0.0450821 0.0531145)
(0.0368455 0.0377972 0.0685709)
(0.0390238 0.0571974 0.0571545)
(0.0457788 0.0521211 0.0697475)
(0.0582047 0.0438696 0.0633725)
(0.0378387 0.0442119 0.0682739)
(0.0437677 0.0408907 0.056439)
(0.0387635 0.0362906 0.0639293)
(0.0470872 0.0436807 0.046459)
(0.0426697 0.0408576 0.0638139)
(0.0359999 0.0421154 0.0637374)
(0.0430521 0.0359923 0.0594583)
(0.0528734 0.0393201 0.0595305)
(0.0439397 0.0497802 0.0520025)
(0.0393404 0.0508534 0.0594359)
(0.0534286 0.0409336 0.0535293)
(0.0417387 0.0442599 0.0597851)
(0.0571046 0.0500635 0.064188)
(0.0536138 0.0459332 0.0612983)
(0.0454714 0.0446189 0.0681056)
(0.0405518 0.0371654 0.0661691)
(0.0504814 0.0420604 0.0625441)
(0.0416974 0.0497508 0.0611045)
(0.0500809 0.0509095 0.0663525)
(0.038633 0.0397129 0.0523917)
(0.0568427 0.0436697 0.0556632)
(0.0484729 0.0417598 0.0562685)
(0.0420364 0.042345 0.0578912)
(0.0516514 0.0371573 0.0635131)
(0.0380296 0.035538 0.0663513)
(0.0439836 0.0456918 0.0697609)
(0.0327389 0.0420844 0.061601)
(0.0504262 0.0354863 0.0623065)
(0.0513699 0.0469322 0.0607242)
(0.0397489 0.0513532 0.0620622)
(0.0518753 0.0548075 0.0574077)
(0.0382095 0.0338118 0.0649135)
(0.0453916 0.0543731 0.0696117)
(0.0364014 0.0416608 0.0668582)
(0.0406513 0.0463901 0.0502113)
(0.0537361 0.0529823 0.057431)
(0.039709 0.0432286 0.0536284)
(0.0475078 0.0402187 0.0645333)
(0.0545209 0.0418893 0.0521346)
(0.0487274 0.0451213 0.0564726)
(0.0540062 0.0346611 0.058016)
(0.0556684 0.0447591 0.053244)
(0.0567964 0.0485528 0.0580531)
(0.0405607 0.0471947 0.0613141)
(0.0498141 0.0545432 0.0673963)
(0.0331914 0.0396542 0.061999)
(0.0504065 0.0499148 0.0547561)
(0.0449129 0.0486805 0.069007)
(0.0462716 0.0452839 0.0582255)
(0.0471405 0.0325605 0.0575725)
(0.0405484 0.0538867 0.0605297)
(0.0568537 0.0423938 0.0588861)
(0.0466783 0.0532526 0.0518385)
(0.0436842 0.0404874 0.0693403)
(0.0417091 0.0519032 0.0660412)
(0.0488342 0.0455461 0.0664987)
(0.0520199 0.0471254 0.0536063)
(0.0484083 0.0470383 0.063628)
(0.0550072 0.0489779 0.05256)
(0.0539334 0.0443505 0.0547045)
(0.0484678 0.0492305 0.0481348)
(0.0331972 0.0502434 0.0554523)
(0.0337691 0.0366656 0.0605758)
(0.0537664 0.053631 0.0606515)
(0.0466639 0.0430036 0.065633)
(0.044778 0.047521 0.0506794)
(0.0508658 0.0561022 0.0638682)
(0.0496317 0.0441235 0.0632573)
(0.0456635 0.0399995 0.066917)
(0.0385853 0.0419233 0.0595165)
(0.0325612 0.0468913 0.0660546)
(0.0431391 0.0448156 0.0463248)
(0.0412716 0.0397611 0.0661705)
(0.0487199 0.0510262 0.0532775)
(0.0453867 0.055806 0.0581416)
(0.0488806 0.0442435 0.0721778)
(0.0463793 0.0366959 0.0515143)
(0.0404332 0.0428354 0.0475981)
(0.0457144 0.0552175 0.0520338)
(0.0536274 0.0508441 0.0578049)
(0.0333108 0.0436479 0.0595698)
(0.0373472 0.053165 0.059765)
(0.0500673 0.0511182 0.0697063)
(0.0391095 0.0387734 0.0694405)
(0.0408711 0.0481095 0.0633203)
(0.0354936 0.038605 0.0546399)
(0.0419459 0.0323026 0.0645273)
(0.0480194 0.0410269 0.058917)
(0.0560122 0.0448501 0.0623932)
(0.0501977 0.0345903 0.060191)
(0.0507256 0.0414865 0.0587969)
(0.0457968 0.0471729 0.0589473)
(0.048673 0.0467967 0.0543513)
(0.0481918 0.04711 0.05854)
(0.0497369 0.0433232 0.0689535)
(0.0485089 0.0506107 0.0499549)
(0.0377689 0.0431086 0.0568062)
(0.0416 0.0497903 0.0720498)
(0.0312706 0.0471155 0.0583568)
(0.0544399 0.0414595 0.0636057)
(0.0392268 0.0397356 0.0597512)
(0.0411705 0.0496523 0.0645708)
(0.0487823 0.0531578 0.05461)
(0.0520764 0.0431272 0.0575409)
(0.0446225 0.0441628 0.0563381)
(0.0520047 0.0541997 0.0594058)
(0.0370603 0.0511156 0.069447)
(0.0370232 0.0512795 0.0628971)
(0.0537654 0.0481197 0.0610126)
(0.0427401 0.0551566 0.0618324)
(0.0461041 0.0384384 0.0707773)
(0.0457114 0.0544939 0.067366)
(0.0503035 0.0525046 0.0644783)
(0.0441233 0.0516938 0.05705)
(0.0524508 0.0495548 0.049598)
(0.0487338 0.0473634 0.0693855)
(0.0389253 0.0540446 0.0666565)
(0.04718 0.0549217 0.056049)
(0.0395812 0.0500151 0.0540855)
(0.0354523 0.0447207 0.0606704)
(0.0531581 0.0442092 0.0624619)
(0.03871 0.0409569 0.0716644)
(0.0383398 0.0490123 0.0671142)
(0.049551 0.0469343 0.0516103)
(0.0362487 0.0481911 0.0495867)
(0.0461212 0.0550751 0.0613857)
(0.0459008 0.0380914 0.0580025)
(0.0464258 0.0447519 0.0498552)
(0.0413354 0.0341927 0.0657048)
(0.0443283 0.0503483 0.0707104)
(0.0374412 0.0496473 0.0544106)
(0.056151 0.0409702 0.0604502)
(0.0363889 0.0505943 0.0509755)
(0.0506786 0.0328571 0.0630804)
(0.0353661 0.0408928 0.069024)
(0.0430911 0.0375059 0.052377)
(0.0435945 0.0335574 0.0663932)
(0.0428844 0.0369711 0.0494243)
(0.0386204 0.0392277 0.0645427)
(0.0375674 0.0520144 0.0659747)
(0.0464726 0.0510796 0.0714899)
(0.0475035 0.0578855 0.0602596)
(0.0332169 0.0467584 0.0596362)
(0.0428959 0.0538382 0.063937)
(0.046615 0.0430642 0.0700019)
(0.0470761 0.0368845 0.0489518)
(0.0562768 0.0515964 0.0588601)
(0.0462225 0.0409384 0.0612018)
(0.0420173 0.0531239 0.0683105)
(0.0496914 0.0448427 0.0479743)
(0.0463037 0.0572252 0.0665164)
(0.0328326 0.0435133 0.0650288)
(0.0392875 0.0457055 0.0630144)
(0.0456743 0.0456822 0.0617628)
(0.0418918 0.0404932 0.0590338)
(0.0423793 0.0401457 0.0710476)
(0.0345126 0.0430257 0.0568027)
(0.0440196 0.0422659 0.0647329)
(0.0487826 0.0363739 0.0607472)
(0.0435344 0.0333654 0.0526032)
(0.0355558 0.0535703 0.060794)
(0.0378092 0.0376019 0.0562646)
(0.0384151 0.033866 0.0628937)
(0.0465103 0.0499588 0.0571102)
(0.0539589 0.0383489 0.054803)
(0.0360676 0.0469227 0.0610674)
(0.0490364 0.0480686 0.0712683)
(0.0514836 0.0337499 0.0576282)
(0.0401767 0.0536445 0.0514035)
(0.0557264 0.0478229 0.0653201)
(0.0518029 0.0344635 0.0636931)
(0.0409873 0.0425964 0.0611456)
(0.045214 0.0427351 0.0503083)
(0.0327377 0.0431033 0.0542994)
(0.054075 0.053747 0.054316)
(0.0530207 0.0378796 0.0513898)
(0.0348927 0.0484401 0.0620928)
(0.0368812 0.0390041 0.0506032)
(0.0383765 0.0464768 0.0582141)
(0.0449566 0.0438422 0.0586719)
(0.0430906 0.05102 0.0624677)
(0.0502077 0.0378465 0.0608148)
(0.0331418 0.0399311 0.0596007)
(0.0398262 0.053663 0.0637679)
(0.045581 0.047837 0.0718967)
(0.0334812 0.0489007 0.0657588)
(0.0495613 0.0364028 0.0522707)
(0.0433709 0.0538152 0.0706593)
(0.0455013 0.0457896 0.0721859)
(0.0482855 0.0366237 0.0692127)
(0.0414103 0.0397491 0.0533985)
(0.0446258 0.0416921 0.0537935)
(0.0360116 0.0365977 0.0650477)
(0.0544758 0.0446455 0.056763)
(0.0454478 0.0499219 0.0596812)
(0.053998 0.0391842 0.0683847)
(0.048077 0.0548655 0.0507476)
(0.0477287 0.04723 0.0674179)
(0.0450407 0.0510775 0.049174)
(0.0447449 0.0350375 0.0694052)
(0.0414164 0.0436979 0.0732043)
(0.0430204 0.0581599 0.0616641)
(0.0344688 0.0476062 0.0681707)
(0.0387967 0.0553569 0.0604256)
(0.0538846 0.0551636 0.0623809)
(0.0555549 0.0474161 0.0678334)
(0.0504709 0.0369952 0.0503848)
(0.0537204 0.0459737 0.0633445)
(0.0443856 0.0319854 0.0567298)
(0.0468761 0.0395873 0.0516659)
(0.055261 0.0445217 0.050933)
(0.0404731 0.0546213 0.0583512)
(0.0490236 0.0395681 0.0720434)
(0.036529 0.0446868 0.0513313)
(0.042575 0.0469752 0.0510531)
(0.0584244 0.0459574 0.0620067)
(0.0384166 0.0336293 0.0601393)
(0.0498799 0.0405692 0.0536852)
(0.0502592 0.0520534 0.057731)
(0.0456444 0.0396906 0.0536778)
(0.0510322 0.0433632 0.0667288)
(0.041183 0.0425581 0.0554578)
(0.0565377 0.0420164 0.064431)
(0.0417575 0.0428052 0.0498283)
(0.0556713 0.0464688 0.0637645)
(0.0423192 0.0443713 0.0703866)
(0.046303 0.0493082 0.064199)
(0.0460291 0.0371698 0.0687892)
(0.0482965 0.037345 0.0545666)
(0.036181 0.0363422 0.0611403)
(0.0431501 0.0553796 0.0665539)
(0.0413276 0.0315908 0.0594249)
(0.0334669 0.0487942 0.0532663)
(0.0579695 0.0420554 0.0614017)
(0.0366579 0.0382173 0.0633282)
(0.0518625 0.0460148 0.0503306)
(0.0478533 0.0395755 0.0572418)
(0.0578692 0.0402887 0.059164)
(0.0557166 0.0491676 0.0598615)
(0.0458642 0.0351569 0.0594148)
(0.0412027 0.0564406 0.0545856)
(0.0442897 0.0358577 0.0642871)
(0.046233 0.0331657 0.0663975)
(0.0318748 0.0426382 0.0568651)
(0.0351104 0.0362289 0.0628741)
(0.039864 0.0484585 0.0514068)
(0.0423519 0.050754 0.0566046)
(0.0367304 0.0363475 0.0540835)
(0.0457705 0.0349589 0.0531937)
(0.0430076 0.0535368 0.0501296)
(0.0390229 0.0462869 0.0667817)
(0.0538193 0.052223 0.0633485)
(0.0551899 0.0372577 0.0576892)
(0.0334588 0.0397344 0.0551473)
(0.0554498 0.0477745 0.0554109)
(0.0511017 0.036931 0.0679055)
(0.0531074 0.0469429 0.0592406)
(0.0389801 0.0400156 0.0488592)
(0.0435003 0.0470054 0.0564833)
(0.0521766 0.0489236 0.0574584)
(0.0453226 0.0563198 0.0544708)
(0.039349 0.0459014 0.0484598)
(0.0364298 0.0468992 0.0557378)
(0.0353886 0.0532988 0.0649316)
(0.0375892 0.0480791 0.0626657)
(0.0580593 0.0441351 0.0587758)
(0.0480548 0.0326716 0.0607182)
(0.0394415 0.0389563 0.0670935)
(0.0373375 0.0557317 0.0564491)
(0.0394436 0.0455422 0.0544504)
(0.0405332 0.0436673 0.0517055)
(0.0486428 0.0514113 0.0558004)
(0.0428139 0.0526773 0.0531321)
(0.0493907 0.0458009 0.0705504)
(0.0430555 0.047977 0.0589646)
(0.0530597 0.0418573 0.0677054)
(0.0519429 0.0563771 0.0560756)
(0.0521554 0.0492419 0.0684102)
(0.0403323 0.0376317 0.0603791)
(0.0391462 0.037064 0.0581344)
(0.0544129 0.0393644 0.0514741)
(0.0448192 0.052651 0.0716847)
(0.0347741 0.0525248 0.0549766)
(0.034714 0.049717 0.0595636)
(0.0517108 0.0537655 0.0521997)
(0.0525019 0.0512609 0.0698292)
(0.0473178 0.0461936 0.0601391)
(0.0485264 0.0385116 0.0616927)
(0.0445131 0.0536507 0.055664)
(0.0476922 0.0343441 0.0515495)
(0.0482123 0.0432241 0.0539657)
(0.0418568 0.0352388 0.0532333)
(0.0502829 0.0402663 0.0655025)
(0.0363375 0.0461369 0.049909)
(0.0348928 0.0409922 0.0596176)
(0.0501469 0.0435668 0.0553976)
(0.0501861 0.0354308 0.0569053)
(0.0412284 0.057287 0.0623424)
(0.0485286 0.050451 0.0710478)
(0.0381753 0.0336488 0.05642)
(0.0492469 0.0453979 0.0615037)
(0.0419379 0.034911 0.0690805)
(0.0495974 0.0321852 0.0581295)
(0.0528865 0.0445053 0.0523226)
(0.0447975 0.0420152 0.07352)
(0.0543695 0.0353169 0.0635043)
(0.0479207 0.0459972 0.0468075)
(0.0455985 0.0536122 0.0498508)
(0.0342183 0.0407792 0.067233)
(0.0369362 0.0424 0.0695917)
(0.0317267 0.0450303 0.0617617)
(0.0501304 0.0376467 0.069775)
(0.0481596 0.0493201 0.0629152)
(0.0347793 0.0506629 0.0533653)
(0.0537057 0.0369162 0.0659336)
(0.0413447 0.0499959 0.0474697)
(0.039107 0.0476509 0.0719517)
(0.0555807 0.0386665 0.0535179)
(0.0461601 0.0409957 0.0478648)
(0.0549371 0.0393407 0.0564548)
(0.0553177 0.0528832 0.0621819)
(0.056597 0.0451718 0.0572919)
(0.0478452 0.0549558 0.063305)
(0.0389132 0.052293 0.0503221)
(0.043439 0.0547938 0.0518042)
(0.040117 0.0383737 0.0498829)
(0.0520565 0.0468911 0.0481803)
(0.0564415 0.0427171 0.0534526)
(0.0325362 0.039959 0.0573472)
(0.0493504 0.038618 0.0532342)
(0.0391446 0.0433259 0.0495297)
(0.0343774 0.0408295 0.0535474)
(0.0484668 0.0428658 0.0511142)
(0.0341111 0.0380509 0.0633474)
(0.0380398 0.0534442 0.0532118)
(0.0536113 0.0472166 0.0520224)
(0.0321458 0.045244 0.055209)
(0.0368297 0.0555069 0.0613232)
(0.0518254 0.0448069 0.0479824)
(0.0405723 0.0492529 0.0565367)
(0.0541993 0.0547534 0.0565886)
(0.0557873 0.0502016 0.0551546)
(0.0452051 0.0450433 0.0471252)
(0.0461615 0.0407442 0.0571732)
(0.054748 0.038673 0.0609898)
(0.0507164 0.0525484 0.0550006)
(0.0312008 0.0430288 0.0604325)
(0.0481204 0.0400125 0.0473992)
(0.0363389 0.0346183 0.0567091)
(0.0483805 0.0336879 0.0671531)
(0.041897 0.0559409 0.0567926)
(0.0341126 0.0382778 0.0654891)
(0.0419033 0.0370721 0.0692863)
(0.0382552 0.0461207 0.0700688)
(0.0424276 0.0426026 0.0476875)
(0.0444787 0.0439033 0.0720689)
(0.0524635 0.0438515 0.0652897)
(0.0407918 0.0454777 0.0672546)
(0.0500844 0.0483737 0.0627214)
(0.0414322 0.0523106 0.0634402)
(0.0466963 0.0384946 0.0553165)
(0.0511498 0.0460555 0.0554939)
(0.0374506 0.0475639 0.0686808)
(0.045727 0.0561098 0.0639757)
(0.0332569 0.0505793 0.0616833)
(0.0515831 0.0416428 0.0504889)
(0.0399756 0.0434335 0.0587976)
(0.0507005 0.0505253 0.051856)
(0.0427849 0.0445275 0.0658192)
(0.0543986 0.0396194 0.0649351)
(0.045305 0.0323378 0.0549866)
(0.0341252 0.0378983 0.0579157)
(0.0394255 0.0389284 0.0551208)
(0.0442965 0.056602 0.0606715)
(0.0483275 0.0417232 0.0700214)
(0.0421528 0.045054 0.0576188)
(0.0553279 0.0419172 0.067146)
(0.0369701 0.0426921 0.0522339)
(0.0513081 0.0394532 0.0514129)
(0.04021 0.0409891 0.0644906)
(0.0437848 0.0558303 0.0685841)
(0.0487236 0.0336495 0.0567959)
(0.0481687 0.0493048 0.0549819)
(0.0410162 0.0394601 0.0575133)
(0.0480034 0.0482226 0.0603879)
(0.0480455 0.0517723 0.064866)
(0.0444793 0.0389056 0.0630911)
(0.0407914 0.0361841 0.0636272)
(0.0493952 0.0574753 0.0636731)
(0.0517643 0.0507084 0.0639751)
(0.0349889 0.0504798 0.063077)
(0.0408143 0.0344231 0.0598973)
(0.0527604 0.0336077 0.0594998)
(0.0456404 0.0416727 0.0632094)
(0.0407979 0.0373311 0.0569009)
(0.0495888 0.0392189 0.0554322)
(0.0360362 0.0550674 0.0587513)
(0.047518 0.0484626 0.0520933)
(0.0509388 0.0457284 0.0720787)
(0.0432934 0.0564932 0.0529973)
(0.0386659 0.0376034 0.0534098)
(0.0347148 0.0452465 0.0520648)
(0.0349089 0.0426086 0.0609229)
(0.053403 0.0527369 0.0658066)
(0.0429496 0.0482969 0.0627701)
(0.0406809 0.0414682 0.0523555)
(0.0367613 0.0411499 0.0495929)
(0.0329943 0.0508342 0.064082)
(0.0421735 0.0508754 0.0683108)
(0.0451954 0.0368611 0.0562193)
(0.0565481 0.0435506 0.0667394)
(0.0536533 0.0489082 0.0697274)
(0.0475783 0.0538622 0.0667161)
(0.0421433 0.0385951 0.0508278)
(0.0436044 0.0406647 0.0481069)
(0.0551947 0.040102 0.0585118)
(0.0395495 0.0483213 0.0656698)
(0.0417639 0.0335296 0.0629519)
(0.0525232 0.0494563 0.0528282)
(0.0479869 0.0412627 0.0492685)
(0.0503504 0.0388952 0.0487768)
(0.0402216 0.0455109 0.0583621)
(0.0468558 0.0501075 0.0472951)
(0.0340124 0.0457261 0.066944)
(0.0417831 0.0494694 0.0585359)
(0.0428915 0.0568169 0.0588788)
(0.0514076 0.0390303 0.0619016)
(0.0406942 0.0493378 0.0688914)
(0.0342304 0.0469164 0.0535838)
(0.0465324 0.0402123 0.0698522)
(0.0443006 0.042411 0.0671938)
(0.0394986 0.0499183 0.0488177)
(0.0493856 0.0402687 0.0627528)
(0.0454219 0.0475609 0.0669203)
(0.0404366 0.0432349 0.0715135)
(0.0495619 0.0327952 0.0549039)
(0.0485529 0.0495254 0.0650308)
(0.0577008 0.0493082 0.0560361)
(0.0417805 0.0330372 0.0562475)
(0.042104 0.0377915 0.0673854)
(0.0559915 0.0476343 0.0618603)
(0.0475257 0.0460036 0.0726816)
(0.0330445 0.0509048 0.057619)
(0.0373094 0.0451106 0.0564673)
(0.0417523 0.0530422 0.0573763)
(0.0336939 0.0440114 0.0620374)
(0.0450791 0.057423 0.0562478)
(0.0369519 0.0377867 0.0522584)
(0.0462222 0.0364129 0.0611592)
(0.0507198 0.0410123 0.0559467)
(0.0395031 0.0357581 0.0689204)
(0.0498005 0.0378215 0.0571434)
(0.0570774 0.0447442 0.060599)
(0.0349617 0.0439099 0.0642127)
(0.0436012 0.039853 0.0527758)
(0.0399365 0.0411968 0.0698135)
(0.0360037 0.0415148 0.0559943)
(0.0495375 0.0383777 0.0665124)
(0.0549953 0.0544791 0.058717)
(0.052655 0.0517127 0.0557343)
(0.0438024 0.0461088 0.0738559)
(0.0418952 0.0488091 0.0518543)
(0.0389094 0.0544903 0.0562581)
(0.0460397 0.0523232 0.0673416)
(0.0513877 0.0453129 0.0684856)
(0.0398701 0.0516856 0.0696773)
(0.0382451 0.0431874 0.0709133)
(0.0374658 0.0545073 0.0645761)
(0.056923 0.0389938 0.0611483)
(0.0431622 0.0421415 0.060471)
(0.0519797 0.0352423 0.0669905)
(0.0319856 0.0498805 0.05937)
(0.0461233 0.04182 0.0678939)
(0.042416 0.0354946 0.0669459)
(0.0502395 0.0544447 0.0561655)
(0.047664 0.0528043 0.0501223)
(0.0458917 0.0420693 0.0588376)
(0.055783 0.0365998 0.061487)
(0.0391952 0.048353 0.0587754)
(0.0402765 0.045542 0.065087)
(0.0464274 0.0529377 0.054519)
(0.0434238 0.050691 0.0725947)
(0.0392438 0.0501858 0.0715197)
(0.0493547 0.0525422 0.0674167)
(0.0381724 0.0570279 0.0616343)
(0.0453419 0.0338406 0.063579)
(0.0445992 0.0541066 0.0534504)
(0.0433889 0.0470964 0.0487858)
(0.0549425 0.0424465 0.0553158)
(0.0410505 0.0389214 0.0699713)
(0.0515397 0.0450149 0.0537454)
(0.0485129 0.0495592 0.057744)
(0.0547508 0.0410609 0.0689445)
(0.038315 0.0528998 0.0688358)
(0.0431367 0.0452854 0.0546009)
(0.0425429 0.0372895 0.0713723)
(0.0474931 0.0390022 0.0662485)
(0.0398213 0.0543735 0.0689293)
(0.0525346 0.0461805 0.0574493)
(0.0357297 0.0480246 0.0589562)
(0.0513581 0.0497399 0.0598001)
(0.0469701 0.0479076 0.0563403)
(0.0402609 0.0560533 0.0652569)
(0.0400511 0.0503896 0.0520073)
(0.0451179 0.0487985 0.0488806)
(0.0527615 0.048216 0.0664703)
(0.0430666 0.0475574 0.0676497)
(0.0412364 0.0481783 0.0493064)
(0.0342217 0.0425665 0.0684987)
(0.0446037 0.0331992 0.0586646)
(0.0464088 0.0452398 0.0663668)
(0.0492915 0.0575707 0.061358)
(0.0561848 0.0455172 0.067577)
(0.0396641 0.0438665 0.0666398)
(0.0516297 0.0470706 0.0627288)
(0.0376236 0.0391829 0.0586005)
(0.0437438 0.0349044 0.0543546)
(0.0414162 0.0330168 0.0538504)
(0.0409072 0.0409168 0.0479222)
(0.0411584 0.0478584 0.0713333)
(0.0429884 0.0312794 0.0618728)
(0.0411613 0.0451472 0.0557156)
(0.0359244 0.0525472 0.0530003)
(0.0520693 0.0546359 0.0550869)
(0.0391212 0.0495576 0.0638721)
(0.0391832 0.042464 0.0620007)
(0.0467433 0.0399194 0.0728834)
(0.0351349 0.0487858 0.0644911)
(0.0474921 0.0524557 0.0590954)
(0.0500571 0.0365322 0.058981)
(0.0420713 0.0427579 0.0646906)
(0.0542997 0.0495481 0.0505974)
(0.031942 0.0416597 0.0586504)
(0.0536616 0.0448758 0.0492097)
(0.050965 0.0424296 0.0649549)
(0.03552 0.039045 0.0607755)
(0.0476896 0.0372345 0.0575746)
(0.0445785 0.0444622 0.0528116)
(0.0446987 0.0428969 0.0470482)
(0.0383811 0.0353043 0.0588156)
(0.050624 0.050708 0.0486619)
(0.0366501 0.0340082 0.0618995)
(0.0501696 0.0324033 0.0603632)
(0.04165 0.0515726 0.0601254)
(0.0516152 0.0453475 0.0637885)
(0.0477043 0.0560945 0.0679557)
(0.0447811 0.0500905 0.0472972)
(0.0504902 0.0517537 0.0611203)
(0.0476026 0.0570994 0.0623208)
(0.0375562 0.0440497 0.0643336)
(0.0451403 0.0360546 0.0493921)
(0.0462298 0.0311935 0.0592622)
(0.048897 0.0447702 0.0595587)
(0.0414857 0.0582129 0.057101)
(0.035356 0.0384177 0.0673466)
(0.0466618 0.0437577 0.052339)
(0.0462448 0.0501613 0.0665094)
(0.0513796 0.0552797 0.0662778)
(0.0484754 0.0562277 0.0524458)
(0.0482761 0.0378264 0.0708147)
(0.0501152 0.0530879 0.0595272)
(0.0496387 0.0355886 0.0674485)
(0.043485 0.0463469 0.0624108)
(0.0460067 0.0353695 0.0654568)
(0.03879 0.0453156 0.072426)
(0.0394312 0.0576549 0.0591109)
(0.0367832 0.034977 0.0637212)
(0.0333285 0.0448519 0.0574603)
(0.0423073 0.0482618 0.0470971)
(0.0507513 0.0395769 0.0705402)
(0.0471675 0.0492763 0.0728695)
(0.0437729 0.056546 0.0631978)
(0.0536967 0.0462438 0.0554864)
(0.0475583 0.0330316 0.0533659)
(0.0552641 0.0498754 0.0660597)
(0.0353359 0.0446815 0.0580724)
(0.0411991 0.0403914 0.0554995)
(0.0439139 0.0411354 0.0622205)
(0.0401297 0.0468323 0.0525677)
(0.0345729 0.0429057 0.0661982)
(0.0478771 0.0448012 0.0693731)
(0.0317196 0.0461618 0.0642242)
(0.057417 0.0493466 0.0615586)
(0.0400133 0.0524428 0.0677447)
(0.0352421 0.0515584 0.0609992)
(0.0430423 0.0501321 0.0537856)
(0.0441866 0.0438334 0.0488583)
(0.0429397 0.051771 0.070105)
(0.0588885 0.0440004 0.0613334)
(0.0449417 0.0320824 0.0651957)
(0.0436439 0.0391911 0.0674931)
(0.0484319 0.0412759 0.061193)
(0.0564853 0.0405089 0.0662066)
(0.0428434 0.0380895 0.0594802)
(0.0381166 0.0376079 0.0656814)
(0.0489717 0.0527594 0.0708299)
(0.0373024 0.0482299 0.0712128)
(0.0440675 0.0447211 0.0642747)
(0.0391508 0.0412631 0.0536286)
(0.052609 0.0560821 0.0588457)
(0.0325403 0.0477404 0.0552134)
(0.0570699 0.0388842 0.0577423)
(0.049177 0.0477188 0.0469441)
(0.0514208 0.0372817 0.0525517)
(0.0418046 0.0434597 0.0674241)
(0.0523947 0.0428025 0.0484375)
(0.0399819 0.0476656 0.0679145)