/*--------------------------------*- C++ -*----------------------------------*\
| =========                 |                                                 |
| \\      /  F ield         | OpenFOAM: The Open Source CFD Toolbox           |
|  \\    /   O peration     | Version:  2.2.x                                 |
|   \\  /    A nd           | Web:      www.OpenFOAM.org                      |
|    \\/     M anipulation  |                                                 |
\*---------------------------------------------------------------------------*/
FoamFile
{
    version     2.0;
    format      ascii;
    class       vectorField;
    location    "0.0002";
    object      U;
}
// * * * * * * * * * * * * * * * * * * * * * * * * * * * * * * * * * * * * * //


2405
(
(-4.90622e-21 0.0111992 -0.0112991)
(0 0.009705 -0.0104625)
(0 -0.00318601 -0.0156197)
(0 -0.00756648 -0.0172503)
(0 -0.0123753 -0.0177446)
(0 -0.00996559 -0.00756007)
(0 -0.00634553 -0.00730864)
(0 0.0129342 -0.00987197)
(0 0.020295 -0.0108036)
(0 0.0349483 -0.0116129)
(0 0.0667375 -0.0131148)
(0 0.0893395 -0.0138273)
(0 0.110957 -0.0147142)
(0 0.192274 -0.0298577)
(1.0301e-35 0.248086 -0.03176)
(-1.98116e-20 0.27779 -0.0351304)
(0 0.213866 -0.0226751)
(0 0.0887951 -0.033941)
(0 0.00387101 -0.0442632)
(0 -0.0452567 -0.0459385)
(-8.574e-21 -0.205562 -0.0143341)
(0 -0.272386 -0.0252134)
(0 -0.288334 -0.0271761)
(0 -0.266642 -0.0239667)
(0 -0.2287 -0.0230938)
(0 -0.194091 -0.00688477)
(0 -0.188258 -0.00685099)
(0 -0.190385 0.00150432)
(0 -0.203714 0.00395287)
(0 -0.212663 0.00403208)
(6.40886e-21 -0.206952 0.0125337)
(0 -0.176394 0.0118497)
(0 -0.119852 0.0227783)
(0 -0.0631928 0.0237768)
(0 -0.0265758 0.0198448)
(0 0.0128351 0.012675)
(0 0.0168682 0.015624)
(-2.36763e-24 0.012242 -0.0129347)
(0 0.0120172 -0.0124366)
(0 -0.00313428 -0.0190519)
(0 -0.0107406 -0.0264108)
(0 -0.0138819 -0.0240388)
(0 -0.0110185 -0.00950109)
(0 -0.00817953 -0.00885919)
(0 -0.00251872 -0.00931486)
(0 0.0219004 -0.0135699)
(0 0.0346393 -0.0153001)
(0 0.0653592 -0.01824)
(0 0.0906204 -0.0212368)
(0 0.101223 -0.0230018)
(0 0.188756 -0.0544953)
(0 0.23073 -0.0551712)
(-2.36842e-24 0.302014 -0.067893)
(0 0.285818 -0.0639809)
(0 0.0756549 -0.0581556)
(0 0.0100252 -0.0816668)
(0 -0.0465882 -0.0768883)
(-2.37569e-24 -0.227798 -0.0447145)
(0 -0.358407 -0.0691005)
(0 -0.250083 -0.0407977)
(0 -0.2486 -0.0439674)
(0 -0.208812 -0.0352934)
(0 -0.184958 -0.011458)
(0 -0.191608 -0.0103147)
(0 -0.171388 0.00282482)
(0 -0.193159 0.0100376)
(0 -0.197194 0.011354)
(-4.87637e-24 -0.213384 0.0237589)
(0 -0.207118 0.0262334)
(0 -0.109571 0.0374707)
(0 -0.0672857 0.0437571)
(0 -0.0293376 0.0320963)
(0 0.0156183 0.0193551)
(0 0.0253855 0.0253475)
(-8.2268e-22 0.0117044 -0.014082)
(0 0.0140143 -0.0151751)
(0 -0.0030825 -0.0234183)
(0 -0.0133103 -0.0358715)
(0 -0.0130099 -0.0283102)
(0 -0.0104643 -0.0117569)
(0 -0.00956771 -0.0109924)
(0 0.0137752 -0.0116695)
(0 0.0234926 -0.0164868)
(0 0.0325372 -0.0184497)
(0 0.0621372 -0.0224358)
(0 0.0878317 -0.0286693)
(0 0.0931179 -0.0305897)
(0 0.182941 -0.0733526)
(0 0.204721 -0.0723786)
(0 0.272797 -0.085637)
(0 0.322254 -0.110815)
(0 0.114554 -0.0528991)
(0 0.0114351 -0.140542)
(0 -0.0433837 -0.102744)
(0 -0.211331 -0.0729)
(0 -0.386043 -0.103832)
(0 -0.216765 -0.0520126)
(0 -0.223227 -0.0596834)
(0 -0.187321 -0.0404593)
(0 -0.164673 -0.016455)
(0 -0.183659 -0.0111833)
(0 -0.138132 -0.00250766)
(0 -0.178537 0.0132747)
(0 -0.178469 0.0190008)
(0 -0.194707 0.0305335)
(0 -0.217555 0.0433596)
(0 -0.101897 0.0518742)
(0 -0.0691119 0.0634697)
(0 -0.032358 0.0481788)
(0 0.017669 0.0316137)
(0 0.0308527 0.0367296)
(1.4594e-27 0.0112664 -0.0156588)
(0 0.0128947 -0.0170197)
(0 -0.00306136 -0.0287748)
(0 -0.011634 -0.0386266)
(0 -0.0120711 -0.0333082)
(0 -0.0100273 -0.0145773)
(0 -0.00835573 -0.0135737)
(0 0.0143912 -0.0134009)
(0 0.0230731 -0.0184843)
(0 0.0310189 -0.0218006)
(0 0.05964 -0.0266717)
(0 0.078507 -0.0343147)
(0 0.0865459 -0.03798)
(0 0.162869 -0.0800688)
(0 0.182701 -0.0886407)
(0 0.247781 -0.102244)
(0 0.257372 -0.127825)
(0 0.0671079 -0.111708)
(0 0.00929606 -0.163517)
(0 -0.040035 -0.13847)
(0 -0.201132 -0.102671)
(0 -0.289438 -0.106273)
(0 -0.1879 -0.061061)
(0 -0.187946 -0.0641812)
(0 -0.167681 -0.04496)
(0 -0.146197 -0.0206079)
(0 -0.154203 -0.0104836)
(0 -0.123124 -0.00174846)
(0 -0.15651 0.0147203)
(0 -0.161377 0.0257961)
(0 -0.17768 0.0365641)
(0 -0.182074 0.0537809)
(0 -0.0962352 0.0671831)
(0 -0.0653472 0.0764909)
(0 -0.0356058 0.0699738)
(0 0.0200131 0.0496253)
(0 0.026265 0.0477295)
(0 0.00983928 -0.017462)
(0 0.0102564 -0.0184644)
(0 0.00926273 -0.0185548)
(0 -0.00738415 -0.0371821)
(0 -0.00944525 -0.0353449)
(0 -0.00818383 -0.0181365)
(0 -0.00527738 -0.0173673)
(0 0.0150674 -0.0157557)
(0 0.0212808 -0.0199341)
(0 0.0291948 -0.0245108)
(0 0.0546137 -0.030534)
(0 0.0682141 -0.0383211)
(0 0.0813331 -0.0456294)
(0 0.135726 -0.0808349)
(0 0.158744 -0.0970654)
(0 0.188724 -0.106479)
(0 0.165254 -0.119052)
(0 0.0670067 -0.1503)
(0 0.0115134 -0.15892)
(0 -0.0360776 -0.157814)
(0 -0.153448 -0.111879)
(0 -0.174346 -0.0939678)
(0 -0.163771 -0.0688095)
(0 -0.153396 -0.0614042)
(0 -0.142395 -0.046121)
(0 -0.120792 -0.0212985)
(0 -0.118815 -0.010456)
(0 -0.109438 -0.00115504)
(0 -0.132877 0.0165063)
(0 -0.141725 0.0292964)
(0 -0.144156 0.0407715)
(0 -0.133053 0.055045)
(0 -0.0922637 0.0844229)
(0 -0.0607948 0.0870827)
(0 -0.0349572 0.0894312)
(0 0.0157771 0.0703777)
(0 0.0167581 0.0638651)
(0 -0.000436027 -0.0258766)
(0 -7.82496e-05 -0.0269522)
(0 0.000631386 -0.0279853)
(0 0.00105069 -0.0348888)
(0 -0.000521227 -0.0332348)
(0 0.00339086 -0.0203868)
(0 0.00516511 -0.0201138)
(0 0.00643528 -0.0210807)
(0 0.0175306 -0.0381242)
(0 0.0271116 -0.0436121)
(0 0.0312528 -0.0418407)
(0 0.0430143 -0.0499239)
(0 0.0593402 -0.0593048)
(0 0.0918802 -0.0925464)
(0 0.112458 -0.108943)
(0 0.0834986 -0.110123)
(0 0.0675597 -0.123943)
(0 0.0747647 -0.195538)
(0 0.0217362 -0.207918)
(0 -0.0367578 -0.205077)
(0 -0.044812 -0.109168)
(0 -0.057662 -0.0896611)
(0 -0.0791429 -0.0741375)
(0 -0.0922947 -0.063923)
(0 -0.0824237 -0.0497225)
(0 -0.063725 -0.0193689)
(0 -0.0618015 -0.0105878)
(0 -0.0802659 0.0103648)
(0 -0.0865258 0.0225879)
(0 -0.0947299 0.0343843)
(0 -0.0862251 0.0531392)
(0 -0.0787408 0.0666715)
(0 -0.0800542 0.131982)
(0 -0.0539585 0.153577)
(0 -0.021604 0.160038)
(0 0.00423811 0.108609)
(0 0.00561151 0.100979)
(0 -0.000619164 -0.0279694)
(0 -0.000427375 -0.02904)
(0 0.00306916 -0.0384018)
(0 0.00189431 -0.038768)
(0 -9.10849e-05 -0.0365436)
(0 0.00387049 -0.0215095)
(0 0.00603026 -0.0205423)
(0 0.00938416 -0.0362923)
(0 0.016113 -0.0435645)
(0 0.0246694 -0.0477468)
(0 0.0265049 -0.0430387)
(0 0.0345809 -0.0503254)
(0 0.052223 -0.0596002)
(0 0.0748732 -0.0969009)
(0 0.0932411 -0.109171)
(0 0.0626083 -0.105518)
(0 0.0449247 -0.121072)
(0 0.0521979 -0.131241)
(0 0.0287467 -0.265215)
(0 -0.0278019 -0.225013)
(0 -0.0253582 -0.100388)
(0 -0.0305121 -0.0807394)
(0 -0.075118 -0.0639186)
(0 -0.0635809 -0.0616246)
(0 -0.0577472 -0.0458049)
(0 -0.0435043 -0.0158646)
(0 -0.0400547 -0.0094504)
(0 -0.0582687 0.00900901)
(0 -0.0629767 0.0227393)
(0 -0.0683363 0.0316462)
(0 -0.0673363 0.0504189)
(0 -0.0680319 0.068062)
(0 -0.0540113 0.0804195)
(0 -0.0501692 0.204904)
(0 -0.0174493 0.193168)
(0 0.00768498 0.122585)
(0 0.0116878 0.118323)
(0 -0.000636543 -0.0303674)
(0 -0.000484156 -0.031159)
(0 0.00142077 -0.031966)
(0 0.00263305 -0.0421755)
(0 0.000150808 -0.0397696)
(0 0.00408761 -0.0237114)
(0 0.00626989 -0.0219245)
(0 0.00524875 -0.0264688)
(0 0.0147089 -0.0488205)
(0 0.0215455 -0.0507796)
(0 0.0240803 -0.045302)
(0 0.0286867 -0.0511159)
(0 0.0458366 -0.0600155)
(0 0.0634535 -0.100234)
(0 0.0763245 -0.105475)
(0 0.0493122 -0.102088)
(0 0.0316659 -0.117486)
(0 0.0540689 -0.178328)
(0 0.0273386 -0.292353)
(0 -0.00962348 -0.213)
(0 -0.0142929 -0.0915335)
(0 -0.0133908 -0.0736389)
(0 -0.0327021 -0.0538647)
(0 -0.0420901 -0.0557901)
(0 -0.040627 -0.04)
(0 -0.0295538 -0.0124875)
(0 -0.0255554 -0.00853154)
(0 -0.0406806 0.00788522)
(0 -0.0445427 0.0206947)
(0 -0.0459573 0.0270674)
(0 -0.0469429 0.0442935)
(0 -0.0555775 0.0682661)
(0 -0.0398706 0.134906)
(0 -0.0356702 0.238265)
(0 -0.0166086 0.207015)
(0 0.00875262 0.133441)
(0 0.0154208 0.132039)
(0 -0.000655454 -0.0329831)
(0 5.36697e-05 -0.033402)
(0 0.00188003 -0.0341654)
(0 0.00289994 -0.0445045)
(0 0.000424395 -0.0432483)
(0 0.0043484 -0.0261603)
(0 0.00538466 -0.0255664)
(0 0.0043477 -0.0298484)
(0 0.0127726 -0.0518426)
(0 0.0184624 -0.0542569)
(0 0.0217687 -0.0479717)
(0 0.0263935 -0.0528483)
(0 0.0400603 -0.0606288)
(0 0.0562551 -0.0976636)
(0 0.0614334 -0.102378)
(0 0.037659 -0.0994556)
(0 0.0290416 -0.110362)
(0 0.0447315 -0.170436)
(0 0.0231892 -0.24725)
(0 0.0073377 -0.202639)
(0 -0.00484852 -0.0842908)
(0 -0.00607036 -0.064863)
(0 -0.0178059 -0.0459432)
(0 -0.0278567 -0.0449222)
(0 -0.0275017 -0.0350062)
(0 -0.0196874 -0.00972572)
(0 -0.0176075 -0.00755916)
(0 -0.0275363 0.00701123)
(0 -0.0295944 0.0160837)
(0 -0.0297432 0.0230525)
(0 -0.0323543 0.0391676)
(0 -0.0381851 0.0638994)
(0 -0.0221515 0.139288)
(0 -0.0166985 0.222809)
(0 -0.0157101 0.22151)
(0 0.00995714 0.144918)
(0 0.0128452 0.136282)
(0 -0.000264306 -0.0356416)
(0 0.000915863 -0.0359585)
(0 0.00238265 -0.0365132)
(0 0.00286346 -0.0464753)
(0 0.000523833 -0.0460677)
(0 0.00354979 -0.0304854)
(0 0.0036406 -0.0313838)
(0 0.00321958 -0.0337068)
(0 0.0102213 -0.0534627)
(0 0.0155473 -0.0569175)
(0 0.0204302 -0.050752)
(0 0.0260286 -0.0554382)
(0 0.0348366 -0.0615245)
(0 0.0495899 -0.091052)
(0 0.0512879 -0.0977111)
(0 0.0327583 -0.0951141)
(0 0.0300478 -0.102833)
(0 0.0359463 -0.162948)
(0 0.0241149 -0.177683)
(0 0.0163538 -0.166446)
(0 0.000563522 -0.0754169)
(0 -0.00367781 -0.0551915)
(0 -0.00804554 -0.039937)
(0 -0.0187648 -0.0341931)
(0 -0.0184265 -0.0286827)
(0 -0.0143131 -0.00784735)
(0 -0.0134591 -0.00664004)
(0 -0.0188059 0.00636566)
(0 -0.0190015 0.0115672)
(0 -0.0188836 0.0189431)
(0 -0.0212761 0.0353146)
(0 -0.0214827 0.0591333)
(0 -0.00449262 0.145996)
(0 -0.00409905 0.186775)
(0 -0.00860797 0.210128)
(0 0.0076144 0.150935)
(0 0.00726082 0.136302)
(0 0.00891833 -0.0426846)
(0 0.0102265 -0.0431424)
(0 0.00596917 -0.0534017)
(0 0.0041456 -0.0527239)
(0 0.00171694 -0.0522815)
(0 -0.014158 -0.0566823)
(0 -0.0140897 -0.0579011)
(0 -0.00319771 -0.0469152)
(0 -0.000940713 -0.0490176)
(0 0.00289779 -0.0518141)
(0 0.0190191 -0.0555809)
(0 0.0246491 -0.0603272)
(0 0.0311361 -0.0654775)
(0 0.0434458 -0.0809681)
(0 0.0450622 -0.0873652)
(0 0.0360371 -0.0786505)
(0 0.0334982 -0.0857035)
(0 0.0362905 -0.104823)
(0 0.0284529 -0.0863539)
(0 0.0224862 -0.0778038)
(0 0.00795657 -0.0508437)
(0 0.00368208 -0.0331881)
(0 0.00214814 -0.0233646)
(0 2.88982e-05 -0.00223746)
(0 4.53624e-05 0.00109872)
(0 0.00804247 -0.0101058)
(0 0.00827534 -0.00903556)
(0 0.00865405 -0.00119639)
(0 0.0104165 0.00264049)
(0 0.0119817 0.00935652)
(0 0.0290893 0.0234171)
(0 0.0343787 0.0457019)
(0 0.0264175 0.120081)
(0 0.0221649 0.159007)
(0 0.019127 0.179961)
(0 -0.0138865 0.138666)
(0 -0.0136885 0.124495)
(0 0.0107841 -0.0456672)
(0 0.0140517 -0.0464486)
(0 0.00562383 -0.0569616)
(0 0.00508865 -0.0560059)
(0 0.00171025 -0.0560185)
(0 -0.0188272 -0.0626746)
(0 -0.0225492 -0.0656994)
(0 -0.00351663 -0.0501375)
(0 -0.00377519 -0.0520067)
(0 0.00156284 -0.0541889)
(0 0.0192331 -0.0572316)
(0 0.0247966 -0.0615214)
(0 0.0417484 -0.0783464)
(0 0.0435708 -0.077006)
(0 0.0458236 -0.0846874)
(0 0.036232 -0.0738624)
(0 0.032996 -0.0765271)
(0 0.0403235 -0.0967336)
(0 0.0298291 -0.0642694)
(0 0.0270319 -0.0641221)
(0 0.0109461 -0.0435774)
(0 0.00472414 -0.0262671)
(0 0.00437357 -0.022265)
(0 0.0019645 0.00369064)
(0 0.00114813 0.00330008)
(0 0.00887567 -0.0111078)
(0 0.00997908 -0.0103933)
(0 0.00945752 -0.00324567)
(0 0.0150056 0.00192378)
(0 0.01862 0.00694387)
(0 0.0396564 0.0212888)
(0 0.0528461 0.0418343)
(0 0.0412137 0.103734)
(0 0.0370662 0.181599)
(0 0.0267414 0.176622)
(0 -0.0179635 0.119514)
(0 -0.0235927 0.11265)
(0 0.0110501 -0.0488223)
(0 0.0162499 -0.0498519)
(0 0.00524341 -0.0606867)
(0 0.00539416 -0.0595773)
(0 0.000815258 -0.0605257)
(0 -0.0202965 -0.0675536)
(0 -0.0280379 -0.072375)
(0 -0.00388202 -0.0535945)
(0 -0.00555048 -0.0554692)
(0 0.00167105 -0.0563809)
(0 0.0195621 -0.0594503)
(0 0.0248681 -0.0625518)
(0 0.0417106 -0.0793641)
(0 0.0436124 -0.0755737)
(0 0.0472131 -0.0835986)
(0 0.0373054 -0.072939)
(0 0.0340072 -0.0695467)
(0 0.0384677 -0.0816458)
(0 0.0316943 -0.0526219)
(0 0.0343096 -0.0597183)
(0 0.0156228 -0.0399983)
(0 0.00620836 -0.0231617)
(0 0.00657112 -0.0218151)
(0 0.00393936 0.00653904)
(0 0.00112659 0.00277363)
(0 0.00898803 -0.0118992)
(0 0.0134941 -0.0131905)
(0 0.0107526 -0.00658598)
(0 0.0196049 9.27534e-05)
(0 0.0302705 0.00378522)
(0 0.0528706 0.0191754)
(0 0.0739022 0.0386986)
(0 0.059973 0.0522604)
(0 0.0555169 0.181939)
(0 0.0268127 0.14901)
(0 -0.0154971 0.0968166)
(0 -0.0270122 0.0972762)
(0 0.0113038 -0.0521613)
(0 0.0142261 -0.052761)
(0 0.00480134 -0.0646354)
(0 0.00406994 -0.0639903)
(0 -0.000171748 -0.0653124)
(0 -0.0218619 -0.0727117)
(0 -0.0248563 -0.0748202)
(0 -0.0118676 -0.0697536)
(0 -0.00439317 -0.0585374)
(0 0.00177795 -0.0586458)
(0 0.0198908 -0.0617417)
(0 0.0250103 -0.0639617)
(0 0.0416716 -0.0803931)
(0 0.0441891 -0.0779875)
(0 0.0486161 -0.0825438)
(0 0.0383898 -0.0720509)
(0 0.0375238 -0.0679533)
(0 0.0480283 -0.0826701)
(0 0.0383559 -0.0545244)
(0 0.0422122 -0.0562718)
(0 0.0206687 -0.0375091)
(0 0.0104158 -0.0246407)
(0 0.00919355 -0.0218922)
(0 0.00526534 0.00419984)
(0 0.00107621 0.00214696)
(0 0.00911519 -0.012811)
(0 0.0133285 -0.015427)
(0 0.0127242 -0.011256)
(0 0.024135 -0.00465615)
(0 0.0484403 -0.00160661)
(0 0.0724241 0.0154549)
(0 0.0871921 0.0316532)
(0 0.0752118 0.0455214)
(0 0.0639036 0.137854)
(0 0.0265468 0.124495)
(0 -0.0133967 0.0772222)
(0 -0.0193418 0.0738543)
(0 0.00929829 -0.0556944)
(0 0.0100083 -0.0560679)
(0 0.00432145 -0.0687624)
(0 0.00164888 -0.0692953)
(0 -0.00205268 -0.0706246)
(0 -0.0190689 -0.0758909)
(0 -0.0176292 -0.0757653)
(0 -0.0123907 -0.0742111)
(0 -0.00146093 -0.0612429)
(0 0.00344429 -0.0613954)
(0 0.020156 -0.0639177)
(0 0.0252978 -0.0659645)
(0 0.0416312 -0.0814334)
(0 0.0453903 -0.0819432)
(0 0.0499705 -0.0840483)
(0 0.0413193 -0.0726418)
(0 0.0422581 -0.0699852)
(0 0.0518868 -0.0765784)
(0 0.0500952 -0.0637881)
(0 0.0528613 -0.0594009)
(0 0.029634 -0.0394247)
(0 0.0187509 -0.0287273)
(0 0.0126007 -0.0223024)
(0 0.00711263 -0.00242148)
(0 0.00106156 -0.00185796)
(0 0.00822448 -0.0143933)
(0 0.0107503 -0.0169321)
(0 0.0153897 -0.017252)
(0 0.0325565 -0.0134392)
(0 0.0663795 -0.0112772)
(0 0.0898881 0.00830055)
(0 0.0954803 0.0231831)
(0 0.0957129 0.0393858)
(0 0.0603233 0.0870326)
(0 0.0268115 0.0877239)
(0 -0.00840201 0.0576477)
(0 -0.0100386 0.0516537)
(0 -0.000721101 -0.0650676)
(0 9.56843e-06 -0.0654042)
(0 -0.0016259 -0.0796921)
(0 -0.00683591 -0.080765)
(0 -0.010773 -0.0823219)
(0 -0.00513052 -0.0818368)
(0 -0.00369064 -0.0818111)
(0 -0.00317056 -0.0819682)
(0 0.00919034 -0.066595)
(0 0.0143589 -0.0671155)
(0 0.0218255 -0.0690553)
(0 0.0271112 -0.0711563)
(0 0.0434319 -0.0878973)
(0 0.0492191 -0.0899938)
(0 0.0539284 -0.0921659)
(0 0.0555209 -0.0803967)
(0 0.0565466 -0.0776795)
(0 0.0562377 -0.0754557)
(0 0.0750241 -0.0796316)
(0 0.0781661 -0.0749268)
(0 0.0905735 -0.060697)
(0 0.0747011 -0.0473391)
(0 0.0512711 -0.0346168)
(0 0.00263535 -0.0233755)
(0 -0.00461258 -0.0232526)
(0 -0.0312359 -0.0500595)
(0 -0.0259066 -0.052817)
(0 0.0255187 -0.038279)
(0 0.043425 -0.0387055)
(0 0.0746321 -0.0395569)
(0 0.164621 -0.0339452)
(0 0.168425 -0.0157852)
(0 0.148111 -0.000313928)
(0 0.0849932 0.0255513)
(0 0.0483572 0.0241435)
(0 -0.0216165 0.00646436)
(0 -0.0223658 0.00290233)
(0 -0.00117644 -0.0691364)
(0 -0.00086687 -0.0695761)
(0 -0.00181089 -0.0855255)
(0 -0.0102005 -0.0864039)
(0 -0.0125913 -0.0883154)
(0 -0.00395759 -0.0868801)
(0 -0.00137198 -0.0858121)
(0 0.00321864 -0.0714913)
(0 0.0122619 -0.0687399)
(0 0.0161268 -0.069859)
(0 0.0226378 -0.0719414)
(0 0.0286323 -0.0739708)
(0 0.0434921 -0.0919828)
(0 0.0521747 -0.0942271)
(0 0.056427 -0.097184)
(0 0.0601518 -0.0866004)
(0 0.0641021 -0.0849154)
(0 0.0608714 -0.0833563)
(0 0.0864588 -0.0877483)
(0 0.0893511 -0.0852839)
(0 0.120263 -0.0780629)
(0 0.119774 -0.0672853)
(0 0.0554537 -0.0441471)
(0 -0.000619943 -0.0235451)
(0 -0.00813929 -0.0290475)
(0 -0.0476321 -0.0709652)
(0 -0.0512297 -0.0808567)
(0 0.0274285 -0.0493741)
(0 0.0519144 -0.0505229)
(0 0.0897078 -0.0544144)
(0 0.221102 -0.0614667)
(0 0.259064 -0.0447641)
(0 0.164769 -0.0226811)
(0 0.105103 0.0146561)
(0 0.0508763 0.00937341)
(0 -0.0235434 -0.00488255)
(0 -0.0324425 -0.00467265)
(0 -0.00120175 -0.0733066)
(0 -0.00147594 -0.0744114)
(0 -0.00202296 -0.091661)
(0 -0.0123317 -0.0925077)
(0 -0.0126684 -0.0947708)
(0 -0.0038381 -0.0933169)
(0 0.000125497 -0.090156)
(0 0.00357668 -0.0754186)
(0 0.0142833 -0.0718489)
(0 0.0163596 -0.0729977)
(0 0.0229538 -0.0751039)
(0 0.0294959 -0.0772184)
(0 0.0435304 -0.0962094)
(0 0.0537574 -0.0985072)
(0 0.0583585 -0.103121)
(0 0.0621714 -0.0919357)
(0 0.0707549 -0.0930726)
(0 0.0657996 -0.0918658)
(0 0.0955812 -0.0965994)
(0 0.100944 -0.0993747)
(0 0.132977 -0.0912715)
(0 0.153827 -0.0882415)
(0 0.0602416 -0.0566324)
(0 -0.001757 -0.0285708)
(0 -0.0128202 -0.0421274)
(0 -0.0567325 -0.0903843)
(0 -0.0720176 -0.10938)
(0 0.0294958 -0.063268)
(0 0.0592874 -0.0643686)
(0 0.11204 -0.0760769)
(0 0.252018 -0.0879223)
(0 0.334522 -0.0869005)
(0 0.188448 -0.0499978)
(0 0.12583 -0.00375392)
(0 0.0507867 -0.0064494)
(0 -0.0236395 -0.0117153)
(0 -0.0443038 -0.0161723)
(0 -0.00122846 -0.0776675)
(0 -0.00126253 -0.0798781)
(0 0.00065279 -0.0823243)
(0 -0.0110984 -0.0992006)
(0 -0.0127192 -0.10155)
(0 -0.00369121 -0.100078)
(0 -0.000424674 -0.0959148)
(0 0.0039714 -0.079511)
(0 0.0134642 -0.0762753)
(0 0.0165848 -0.0762476)
(0 0.0232631 -0.0783772)
(0 0.029041 -0.0811129)
(0 0.0327644 -0.0850305)
(0 0.0532709 -0.103616)
(0 0.0603319 -0.109303)
(0 0.0642359 -0.0975147)
(0 0.0729596 -0.100897)
(0 0.0709432 -0.100967)
(0 0.101289 -0.109249)
(0 0.11349 -0.114893)
(0 0.146662 -0.105885)
(0 0.13963 -0.100124)
(0 0.0655521 -0.0721322)
(0 0.000437428 -0.0472149)
(0 -0.0188315 -0.058813)
(0 -0.0671701 -0.1134)
(0 -0.060777 -0.120799)
(0 0.031715 -0.0799602)
(0 0.068131 -0.0829973)
(0 0.137994 -0.102984)
(0 0.286779 -0.119118)
(0 0.331372 -0.122542)
(0 0.218797 -0.0849826)
(0 0.135817 -0.0381232)
(0 0.0571007 -0.0267049)
(0 -0.0269643 -0.0284625)
(0 -0.0388799 -0.0322725)
(0 -0.000862414 -0.0827078)
(0 -0.000486409 -0.0855244)
(0 0.000454939 -0.0883096)
(0 -0.00773541 -0.106548)
(0 -0.0110514 -0.108786)
(0 -0.00460169 -0.107348)
(0 -0.00222828 -0.103119)
(0 0.004403 -0.0837685)
(0 0.0108189 -0.0814956)
(0 0.0154232 -0.0804115)
(0 0.0228488 -0.0822382)
(0 0.0279646 -0.0853869)
(0 0.0329027 -0.0890344)
(0 0.0521132 -0.109775)
(0 0.0607425 -0.115647)
(0 0.0648374 -0.103929)
(0 0.0720144 -0.107888)
(0 0.0763802 -0.110678)
(0 0.106696 -0.126254)
(0 0.123071 -0.132065)
(0 0.135961 -0.116516)
(0 0.108107 -0.105696)
(0 0.0387115 -0.0964802)
(0 0.00529975 -0.0824693)
(0 -0.0228913 -0.0875087)
(0 -0.0595438 -0.12773)
(0 -0.0364957 -0.126432)
(0 0.0340834 -0.0994504)
(0 0.0816517 -0.108929)
(0 0.162532 -0.133395)
(0 0.28628 -0.148139)
(0 0.290076 -0.145855)
(0 0.255303 -0.129269)
(0 0.143212 -0.0888876)
(0 0.065577 -0.0648284)
(0 -0.0208026 -0.0597194)
(0 -0.0249047 -0.0609975)
(0 0.00783237 -0.0912017)
(0 0.0082898 -0.0941318)
(0 0.00520219 -0.098149)
(0 -0.000114406 -0.141686)
(0 -0.00416522 -0.144158)
(0 -0.015244 -0.123589)
(0 -0.0126533 -0.119054)
(0 -0.000677559 -0.092659)
(0 0.0015724 -0.0900352)
(0 0.00631474 -0.0886373)
(0 0.0181958 -0.0910111)
(0 0.0233272 -0.0941196)
(0 0.0439332 -0.131755)
(0 0.0528768 -0.137223)
(0 0.0626309 -0.143506)
(0 0.0619015 -0.121669)
(0 0.0691067 -0.125699)
(0 0.0754048 -0.130397)
(0 0.116117 -0.173626)
(0 0.134219 -0.179678)
(0 0.119469 -0.154646)
(0 0.0926769 -0.143677)
(0 0.0346245 -0.15884)
(0 -0.00744167 -0.159041)
(0 -0.0425017 -0.16644)
(0 -0.0424721 -0.155252)
(0 -0.0186946 -0.155502)
(0 0.0474686 -0.14366)
(0 0.11138 -0.162499)
(0 0.20054 -0.18992)
(0 0.313572 -0.218489)
(0 0.317311 -0.215921)
(0 0.280886 -0.208097)
(0 0.169604 -0.215752)
(0 0.082191 -0.186824)
(0 -0.0237266 -0.156444)
(0 -0.0294216 -0.158167)
(0 0.0104024 -0.0952369)
(0 0.0134462 -0.0976498)
(0 0.0029915 -0.103699)
(0 0.00280159 -0.156505)
(0 -0.00235656 -0.154975)
(0 -0.0184428 -0.131888)
(0 -0.0194615 -0.129303)
(0 -0.00298023 -0.117758)
(0 -0.00138759 -0.0927646)
(0 0.00504453 -0.0920286)
(0 0.0178556 -0.0953143)
(0 0.0221789 -0.0982927)
(0 0.0274658 -0.104385)
(0 0.0502263 -0.143854)
(0 0.0597607 -0.15202)
(0 0.0616774 -0.131536)
(0 0.0706563 -0.137077)
(0 0.0742695 -0.143087)
(0 0.111657 -0.190583)
(0 0.130227 -0.199175)
(0 0.130236 -0.180338)
(0 0.113025 -0.175404)
(0 0.03653 -0.194186)
(0 -0.0266241 -0.205187)
(0 -0.0567981 -0.208796)
(0 -0.0510179 -0.184833)
(0 -0.0303759 -0.18021)
(0 0.0105707 -0.185692)
(0 0.135325 -0.197834)
(0 0.215859 -0.223526)
(0 0.354584 -0.267136)
(0 0.408393 -0.283007)
(0 0.276412 -0.297413)
(0 0.210012 -0.310221)
(0 0.0993267 -0.268094)
(0 -0.044319 -0.226196)
(0 -0.0713779 -0.232999)
(0 0.0105985 -0.10018)
(0 0.0152576 -0.102133)
(0 -0.00569608 -0.149377)
(0 0.0026601 -0.168002)
(0 -0.00135813 -0.162101)
(0 -0.0178556 -0.138218)
(0 -0.0217547 -0.137405)
(0 0.00403522 -0.102188)
(0 -0.0018177 -0.0964889)
(0 0.00533773 -0.0965409)
(0 0.0183522 -0.0998722)
(0 0.0208387 -0.103558)
(0 0.0391689 -0.14702)
(0 0.0476612 -0.151235)
(0 0.0565903 -0.162976)
(0 0.0597527 -0.140669)
(0 0.0707742 -0.149886)
(0 0.0950277 -0.199632)
(0 0.108051 -0.208146)
(0 0.126976 -0.223093)
(0 0.128633 -0.20112)
(0 0.126839 -0.211232)
(0 0.0685636 -0.204808)
(0 -0.0421874 -0.254913)
(0 -0.0597854 -0.248145)
(0 -0.0538718 -0.222034)
(0 -0.0384726 -0.207355)
(0 0.0495609 -0.191664)
(0 0.151501 -0.230476)
(0 0.214081 -0.255846)
(0 0.350491 -0.301704)
(0 0.460005 -0.354024)
(0 0.289158 -0.325572)
(0 0.234087 -0.405434)
(0 0.109486 -0.359759)
(0 -0.0513344 -0.31181)
(0 -0.106474 -0.319537)
(0 0.0107936 -0.105277)
(0 0.0106543 -0.108186)
(0 -0.00928125 -0.156728)
(0 -0.00186171 -0.171353)
(0 -0.000278937 -0.169461)
(0 -0.0172409 -0.144767)
(0 -0.0149212 -0.140607)
(0 0.00321698 -0.128858)
(0 0.00215518 -0.102147)
(0 0.00562104 -0.101205)
(0 0.0188718 -0.104604)
(0 0.0201694 -0.110183)
(0 0.0244103 -0.117349)
(0 0.0449323 -0.16142)
(0 0.0532311 -0.174614)
(0 0.0576776 -0.150488)
(0 0.0675956 -0.162857)
(0 0.0921626 -0.217592)
(0 0.105858 -0.229113)
(0 0.123523 -0.249267)
(0 0.126933 -0.22409)
(0 0.11955 -0.244129)
(0 0.0384998 -0.280834)
(0 -0.0362675 -0.296325)
(0 -0.062513 -0.292071)
(0 -0.0564501 -0.263804)
(0 -0.0347608 -0.242034)
(0 0.0503153 -0.219223)
(0 0.143709 -0.25538)
(0 0.212562 -0.291901)
(0 0.347601 -0.339444)
(0 0.411759 -0.403715)
(0 0.294847 -0.39983)
(0 0.225125 -0.480534)
(0 0.119365 -0.468705)
(0 -0.0592506 -0.414831)
(0 -0.091897 -0.404218)
(2.1288e-22 0.00708189 -0.111614)
(0 0.00283354 -0.115908)
(0 -0.0130364 -0.164324)
(0 -0.0073941 -0.170545)
(0 -0.00251096 -0.172754)
(0 -0.0113032 -0.148794)
(0 -0.00403726 -0.142274)
(0 0.00658382 -0.134765)
(0 0.00828911 -0.109374)
(0 0.0088972 -0.107286)
(0 0.0192426 -0.110449)
(0 0.0204119 -0.117239)
(0 0.0226713 -0.124418)
(0 0.0417354 -0.174278)
(0 0.0498388 -0.187436)
(0 0.0540793 -0.161846)
(0 0.0624355 -0.175405)
(0 0.0890187 -0.236737)
(0 0.104004 -0.254651)
(0 0.120772 -0.276731)
(0 0.115957 -0.250042)
(0 0.099223 -0.274376)
(0 0.0701467 -0.295851)
(0 -0.0146228 -0.333467)
(0 -0.0534377 -0.333311)
(0 -0.0517401 -0.309622)
(0 -0.0222194 -0.286726)
(0 0.0128781 -0.274629)
(0 0.12194 -0.280374)
(0 0.198539 -0.3234)
(0 0.305873 -0.375497)
(0 0.324477 -0.438472)
(0 0.300412 -0.485515)
(0 0.202403 -0.553114)
(0 0.110586 -0.571193)
(0 -0.0362767 -0.52624)
(0 -0.0425914 -0.502045)
(0 -0.0183764 -0.123356)
(0 -0.0231253 -0.1283)
(0 -0.0227313 -0.130446)
(0 -0.0262045 -0.158348)
(0 -0.0219422 -0.160144)
(0 0.0201201 -0.153133)
(0 0.0272091 -0.147262)
(0 0.024228 -0.119294)
(0 0.0285692 -0.120009)
(0 0.0291377 -0.117916)
(0 0.0160486 -0.118919)
(0 0.0171792 -0.125889)
(0 0.0216863 -0.181314)
(0 0.0300955 -0.200186)
(0 0.0381713 -0.213811)
(0 0.0414697 -0.183)
(0 0.0496693 -0.19695)
(0 0.0557597 -0.209119)
(0 0.0822251 -0.273713)
(0 0.0976948 -0.295633)
(0 0.10756 -0.296623)
(0 0.0898005 -0.323691)
(0 0.0411422 -0.400386)
(0 0.005838 -0.437628)
(0 -0.0371398 -0.435857)
(0 -0.0688357 -0.388357)
(0 -0.0343591 -0.362629)
(0 0.0306458 -0.292761)
(0 0.0814817 -0.326683)
(0 0.155006 -0.367487)
(0 0.235043 -0.435296)
(0 0.251777 -0.50311)
(0 0.249272 -0.576804)
(0 0.176246 -0.733874)
(0 0.0753073 -0.760808)
(0 -0.015492 -0.670554)
(0 -0.0228485 -0.643526)
(0 -0.0239731 -0.127963)
(0 -0.0348695 -0.134275)
(0 -0.0253884 -0.151357)
(0 -0.0393501 -0.167448)
(0 -0.0273351 -0.16076)
(0 0.0284042 -0.151825)
(0 0.0431349 -0.152536)
(0 0.0254549 -0.118161)
(0 0.0378508 -0.125184)
(0 0.0325933 -0.121696)
(0 0.013939 -0.121245)
(0 0.0150111 -0.127805)
(0 0.0108093 -0.138485)
(0 0.0233529 -0.218449)
(0 0.029852 -0.226464)
(0 0.0355799 -0.190835)
(0 0.045368 -0.207544)
(0 0.0544059 -0.249504)
(0 0.0742526 -0.302482)
(0 0.0832185 -0.313862)
(0 0.106415 -0.314246)
(0 0.107029 -0.354408)
(0 0.0284154 -0.417531)
(0 0.00356737 -0.553474)
(0 -0.0353274 -0.504459)
(0 -0.07943 -0.409079)
(0 -0.0642423 -0.37959)
(0 0.0328394 -0.314114)
(0 0.065535 -0.358419)
(0 0.130244 -0.390722)
(0 0.214658 -0.459962)
(0 0.248553 -0.54037)
(0 0.204295 -0.698898)
(0 0.179179 -0.943882)
(0 0.0692416 -0.907265)
(0 -0.0387507 -0.759015)
(0 -0.0649585 -0.74638)
(0 -0.0242444 -0.132214)
(0 -0.0415346 -0.137454)
(0 -0.0240469 -0.129192)
(0 -0.0468285 -0.172118)
(0 -0.0254507 -0.15365)
(0 0.0293092 -0.145239)
(0 0.0524802 -0.155211)
(0 0.0266714 -0.117058)
(0 0.0434896 -0.127598)
(0 0.0304452 -0.12434)
(0 0.0117453 -0.124164)
(0 0.0111076 -0.130889)
(0 0.00523223 -0.192208)
(0 0.0151272 -0.231179)
(0 0.0196811 -0.23382)
(0 0.0277958 -0.19683)
(0 0.0381958 -0.216359)
(0 0.0359772 -0.221667)
(0 0.0633492 -0.321891)
(0 0.0623548 -0.322523)
(0 0.086567 -0.32138)
(0 0.110517 -0.377541)
(0 0.0345529 -0.38058)
(0 -0.00650335 -0.629394)
(0 -0.0229324 -0.530922)
(0 -0.0682558 -0.432124)
(0 -0.0800929 -0.401315)
(0 0.0172256 -0.394565)
(0 0.0586358 -0.387867)
(0 0.0979335 -0.411414)
(0 0.177779 -0.478742)
(0 0.22592 -0.579902)
(0 0.163611 -0.669514)
(0 0.149189 -1.09731)
(0 0.0666751 -0.991943)
(0 -0.0449666 -0.837083)
(0 -0.0904495 -0.836789)
(0 -0.0245705 -0.136577)
(0 -0.0361293 -0.135573)
(0 -0.0246715 -0.128529)
(0 -0.0394732 -0.16273)
(0 -0.0237084 -0.146751)
(0 0.0302125 -0.138854)
(0 0.0458481 -0.147583)
(0 0.0278788 -0.115986)
(0 0.038692 -0.124959)
(0 0.028255 -0.127103)
(0 0.00948458 -0.127204)
(0 0.00526234 -0.135975)
(0 -0.00340342 -0.198457)
(0 0.00457554 -0.231642)
(0 0.00922762 -0.241808)
(0 0.0197919 -0.203445)
(0 0.0264657 -0.220953)
(0 0.0312087 -0.264947)
(0 0.0445879 -0.31958)
(0 0.0413619 -0.332957)
(0 0.0669498 -0.330215)
(0 0.0796452 -0.381075)
(0 0.0219162 -0.398779)
(0 -0.0143013 -0.602369)
(0 -0.00975033 -0.558595)
(0 -0.0564932 -0.456406)
(0 -0.0585749 -0.428866)
(0 0.0199977 -0.420361)
(0 0.0551868 -0.407603)
(0 0.0651268 -0.436378)
(0 0.141725 -0.501691)
(0 0.166304 -0.61693)
(0 0.11792 -0.72628)
(0 0.0925423 -1.09468)
(0 0.0637664 -1.08118)
(0 -0.0518768 -0.919612)
(0 -0.0729754 -0.891094)
(0 -0.0193389 -0.138006)
(0 -0.0251991 -0.133107)
(0 -0.0253119 -0.127906)
(0 -0.025451 -0.146107)
(0 -0.0167262 -0.136024)
(0 0.024538 -0.129873)
(0 0.0323086 -0.134578)
(0 0.0290782 -0.114943)
(0 0.0284752 -0.121301)
(0 0.0221771 -0.127134)
(0 0.00541628 -0.131567)
(0 -0.000969857 -0.142135)
(0 -0.0123663 -0.205144)
(0 -0.00701308 -0.226617)
(0 -0.00214415 -0.24337)
(0 0.00919988 -0.208704)
(0 0.0129293 -0.223992)
(0 0.0191682 -0.273907)
(0 0.0213806 -0.307787)
(0 0.0188082 -0.33307)
(0 0.0348321 -0.334499)
(0 0.0313729 -0.378629)
(0 0.00862844 -0.418036)
(0 -0.0124485 -0.528153)
(0 -0.00235917 -0.53618)
(0 -0.0267114 -0.486922)
(0 -0.0128957 -0.463406)
(0 0.0228043 -0.447023)
(0 0.0447065 -0.422695)
(0 0.0426502 -0.458704)
(0 0.0891112 -0.532846)
(0 0.0889562 -0.657063)
(0 0.0687876 -0.790346)
(0 0.0433722 -1.01705)
(0 0.0373025 -1.08797)
(0 -0.0346759 -0.982933)
(0 -0.033046 -0.930013)
(0 -0.000870531 -0.162351)
(0 -0.00810004 -0.156405)
(0 -0.00977832 -0.118844)
(0 -0.00418323 -0.10164)
(0 0.00210999 -0.0936611)
(0 0.00536512 -0.0859225)
(0 0.0109736 -0.089521)
(0 0.0163029 -0.103896)
(0 0.0133505 -0.1428)
(0 0.00551085 -0.149899)
(0 -0.0197233 -0.133555)
(0 -0.0267719 -0.144808)
(0 -0.0302185 -0.158612)
(0 -0.0319495 -0.20708)
(0 -0.0281298 -0.222483)
(0 -0.0159873 -0.206559)
(0 -0.0127755 -0.221534)
(0 -0.0115931 -0.26889)
(0 -0.0197597 -0.298135)
(0 -0.0232767 -0.323326)
(0 -0.0528103 -0.321816)
(0 -0.0597376 -0.365929)
(0 -0.048284 -0.403024)
(0 -0.0227507 -0.48391)
(0 -0.0130607 -0.49151)
(0 0.0635791 -0.476092)
(0 0.0753806 -0.454626)
(0 0.0298883 -0.39466)
(0 0.0292398 -0.434672)
(0 0.0267331 -0.471218)
(0 -0.0391989 -0.55501)
(0 -0.0486974 -0.682656)
(0 -0.025173 -0.946292)
(0 -0.025209 -1.09016)
(0 -0.0333925 -1.16407)
(0 0.0229058 -1.00299)
(0 0.0234242 -0.949635)
(0 0.00142508 -0.1657)
(0 -0.0037235 -0.161967)
(0 -0.00208936 -0.12063)
(0 -0.000783347 -0.0884501)
(0 0.00412875 -0.0889627)
(0 0.00462563 -0.0791332)
(0 0.00762319 -0.0729601)
(0 0.0101846 -0.105857)
(0 0.00947338 -0.1487)
(0 -0.000213691 -0.155127)
(0 -0.0294768 -0.134395)
(0 -0.0406675 -0.142754)
(0 -0.038834 -0.189391)
(0 -0.0467185 -0.215567)
(0 -0.0390789 -0.223247)
(0 -0.0234963 -0.200299)
(0 -0.0221075 -0.215115)
(0 -0.0201003 -0.256243)
(0 -0.0394055 -0.296667)
(0 -0.0402846 -0.31275)
(0 -0.0806302 -0.306038)
(0 -0.107366 -0.352739)
(0 -0.0466197 -0.410869)
(0 -0.0361212 -0.490342)
(0 -0.0218062 -0.474284)
(0 0.0881197 -0.456454)
(0 0.132396 -0.459174)
(0 0.045646 -0.416287)
(0 0.0234408 -0.43414)
(0 0.0050388 -0.466058)
(0 -0.0975089 -0.550636)