/*--------------------------------*- C++ -*----------------------------------*\
| =========                 |                                                 |
| \\      /  F ield         | OpenFOAM: The Open Source CFD Toolbox           |
|  \\    /   O peration     | Version:  2.2.x                                 |
|   \\  /    A nd           | Web:      www.OpenFOAM.org                      |
|    \\/     M anipulation  |                                                 |
\*---------------------------------------------------------------------------*/
FoamFile
{
    version     2.0;
    format      ascii;
    class       vectorFieldField;
    location    "0.01";
    object      collisionRecordsPairData;
}
// * * * * * * * * * * * * * * * * * * * * * * * * * * * * * * * * * * * * * //


2405
(
1((-7.81149e-27 -5.67532e-10 -9.44786e-16))
2((0 0 0) (-6.36572e-26 -3.30964e-15 -9.89018e-10))
2((6.36572e-26 3.30964e-15 9.89018e-10) (-3.33419e-25 -1.83938e-09 1.56438e-15))
2((3.82622e-25 -1.24783e-10 -5.22631e-16) (0 0 0))
2{(0 0 0)}
3((-1.62177e-25 -7.33909e-10 -6.8962e-16) (0 0 0) (-5.28283e-27 2.03031e-17 -4.0572e-11))
2((-1.54194e-25 -5.52161e-10 2.00434e-16) (5.28283e-27 -2.03031e-17 4.0572e-11))
2((0 0 0) (-8.99251e-26 1.48596e-09 -1.04333e-15))
3((-2.38936e-26 1.28389e-09 -2.06513e-15) (0 0 0) (0 0 0))
3{(0 0 0)}
3((-1.72202e-25 -1.49473e-10 1.32168e-16) (0 0 0) (2.02333e-27 -5.01109e-17 3.25527e-10))
2((-2.02333e-27 5.01109e-17 -3.25527e-10) (0 0 0))
1((2.61376e-25 1.17345e-09 1.68977e-15))
2((7.86498e-26 -7.98407e-12 -5.09573e-16) (1.47624e-27 -4.59751e-16 3.56961e-10))
3((-1.75507e-27 1.35919e-10 -2.53326e-17) (0 0 0) (-1.47624e-27 4.59751e-16 -3.56961e-10))
2{(0 0 0)}
2((8.7135e-27 -6.4966e-10 -1.21297e-15) (0 0 0))
2((0 0 0) (-1.73534e-25 -9.29178e-10 -2.40088e-15))
2((0 0 0) (3.47795e-25 2.7339e-10 2.64667e-16))
2((0 0 0) (1.67268e-34 1.23472e-09 6.2942e-16))
2{(0 0 0)}
3((-3.34455e-25 -1.43783e-10 -2.41743e-16) (0 0 0) (0 0 0))
2((0 0 0) (-5.51208e-25 -1.49363e-09 -1.03879e-15))
2((-6.29696e-26 6.82203e-11 5.75327e-17) (-1.16112e-25 -3.2173e-17 5.84664e-11))
3((2.63463e-26 3.53169e-17 -5.55062e-11) (-7.03868e-27 7.92237e-11 -1.13736e-16) (1.16112e-25 3.2173e-17 -5.84664e-11))
3((-2.63463e-26 -3.53169e-17 5.55062e-11) (2.97555e-27 -1.51167e-16 -3.98793e-10) (0 0 0))
2((-2.97555e-27 1.51167e-16 3.98793e-10) (0 0 0))
2((0 0 0) (-6.39938e-26 -1.31112e-09 1.02149e-15))
3((9.15504e-26 1.02519e-09 -1.52206e-15) (0 0 0) (0 0 0))
2{(0 0 0)}
2((0 0 0) (6.80117e-27 -1.06056e-09 5.6102e-16))
2((4.42488e-25 -3.74798e-10 -8.52783e-16) (-1.0805e-26 -4.82683e-17 3.20368e-10))
3((1.0805e-26 4.82683e-17 -3.20368e-10) (0 0 0) (-7.83703e-28 5.20219e-10 1.00637e-16))
2((-8.26717e-33 -1.4189e-10 5.57595e-16) (0 0 0))
2{(0 0 0)}
2((0 0 0) (1.53515e-25 -3.04264e-10 2.98114e-16))
1((0 0 0))
2((-1.32338e-26 -2.41343e-15 -1.07798e-09) (7.81149e-27 5.67532e-10 9.44786e-16))
2((0 0 0) (1.32338e-26 2.41343e-15 1.07798e-09))
2((3.33419e-25 1.83938e-09 -1.56438e-15) (0 0 0))
3((-3.82622e-25 1.24783e-10 5.22631e-16) (-7.62644e-32 -2.02783e-15 5.87565e-10) (0 0 0))
2((7.62644e-32 2.02783e-15 -5.87565e-10) (-1.57212e-31 -6.75404e-16 -2.30774e-10))
3((3.65166e-33 -1.46082e-16 1.97775e-10) (1.62177e-25 7.33909e-10 6.8962e-16) (1.57212e-31 6.75404e-16 2.30774e-10))
2((1.54194e-25 5.52161e-10 -2.00434e-16) (-3.65166e-33 1.46082e-16 -1.97775e-10))
2((0 0 0) (8.99251e-26 -1.48596e-09 1.04333e-15))
3((0 0 0) (2.38936e-26 -1.28389e-09 2.06513e-15) (0 0 0))
3((0 0 0) (0 0 0) (-3.00613e-32 -1.26341e-15 -5.71283e-10))
3((1.72202e-25 1.49473e-10 -1.32168e-16) (8.52912e-32 -1.57781e-15 7.31693e-10) (3.00613e-32 1.26341e-15 5.71283e-10))
3((-8.52912e-32 1.57781e-15 -7.31693e-10) (1.06938e-30 9.80585e-15 1.19098e-09) (0 0 0))
3((-2.61376e-25 -1.17345e-09 -1.68977e-15) (-1.06938e-30 -9.80585e-15 -1.19098e-09) (-2.59554e-25 -5.53249e-10 -1.04732e-16))
2((2.0468e-32 7.48362e-16 -5.22173e-10) (-7.86498e-26 7.98407e-12 5.09573e-16))
3((1.75507e-27 -1.35919e-10 2.53326e-17) (-2.0468e-32 -7.48362e-16 5.22173e-10) (4.9418e-32 -1.75695e-15 9.48668e-10))
2((4.58208e-32 -1.28163e-15 -4.77059e-10) (-4.9418e-32 1.75695e-15 -9.48668e-10))
3((-8.7135e-27 6.4966e-10 1.21297e-15) (-4.58208e-32 1.28163e-15 4.77059e-10) (0 0 0))
2((1.73534e-25 9.29178e-10 2.40088e-15) (0 0 0))
2((-1.65159e-31 1.24674e-16 2.07669e-10) (-3.47795e-25 -2.7339e-10 -2.64667e-16))
3((1.65159e-31 -1.24674e-16 -2.07669e-10) (-1.67268e-34 -1.23472e-09 -6.2942e-16) (-3.69015e-32 -3.02218e-15 9.65511e-10))
2((0 0 0) (3.69015e-32 3.02218e-15 -9.65511e-10))
3((0 0 0) (3.34455e-25 1.43783e-10 2.41743e-16) (0 0 0))
2((0 0 0) (5.51208e-25 1.49363e-09 1.03879e-15))
1((6.29696e-26 -6.82203e-11 -5.75327e-17))
2((7.03868e-27 -7.92237e-11 1.13736e-16) (0 0 0))
4((3.34298e-32 -3.26043e-16 -5.6488e-10) (0 0 0) (-3.34137e-36 -6.35763e-11 1.68462e-16) (0 0 0))
3((0 0 0) (-3.34298e-32 3.26043e-16 5.6488e-10) (0 0 0))
2((6.39938e-26 1.31112e-09 -1.02149e-15) (0 0 0))
3((0 0 0) (-9.15504e-26 -1.02519e-09 1.52206e-15) (0 0 0))
3((0 0 0) (-5.07265e-32 -1.53544e-15 -5.05202e-10) (3.174e-32 2.99527e-10 1.21131e-15))
3((1.43858e-31 1.13005e-16 -1.18161e-10) (-6.80117e-27 1.06056e-09 -5.6102e-16) (5.07265e-32 1.53544e-15 5.05202e-10))
2((-1.43858e-31 -1.13005e-16 1.18161e-10) (-4.42488e-25 3.74798e-10 8.52783e-16))
2((3.17649e-29 -8.77662e-10 3.04801e-15) (7.83703e-28 -5.20219e-10 -1.00637e-16))
1((8.26717e-33 1.4189e-10 -5.57595e-16))
2{(0 0 0)}
3((-1.53515e-25 3.04264e-10 -2.98114e-16) (0 0 0) (0 0 0))
3{(0 0 0)}
1((-1.3455e-25 -5.05957e-15 5.45454e-10))
2((1.3455e-25 5.05957e-15 -5.45454e-10) (-1.5622e-30 9.46475e-10 -4.91672e-15))
1((-2.30301e-37 2.14899e-15 2.5621e-09))
3((0 0 0) (-5.37644e-32 -2.28161e-09 -3.16282e-15) (2.30301e-37 -2.14899e-15 -2.5621e-09))
3((-8.26838e-38 1.12221e-15 -4.26224e-10) (-3.66401e-42 -1.60916e-09 3.18802e-15) (0 0 0))
3((8.26838e-38 -1.12221e-15 4.26224e-10) (-1.34588e-37 1.1539e-15 2.3799e-09) (0 0 0))
2((1.34588e-37 -1.1539e-15 -2.3799e-09) (8.95333e-42 6.08128e-10 -3.84636e-15))
2((1.2585e-38 -2.28017e-09 -8.83477e-15) (0 0 0))
3((-5.50909e-32 -3.03875e-16 -7.57218e-10) (1.21706e-30 -7.45389e-10 -2.12382e-15) (0 0 0))
3((-2.06681e-38 -2.18113e-09 -5.56165e-15) (5.50909e-32 3.03875e-16 7.57218e-10) (0 0 0))
3((-6.17555e-31 2.68229e-15 6.02202e-10) (-2.91719e-37 8.61391e-11 5.1873e-17) (0 0 0))
2((6.17555e-31 -2.68229e-15 -6.02202e-10) (0 0 0))
2((0 0 0) (2.59554e-25 5.53249e-10 1.04732e-16))
2((1.04622e-30 -1.00345e-09 -6.65209e-16) (1.77128e-35 5.62925e-16 -2.26105e-09))
3((-1.60439e-40 -1.56011e-09 4.36486e-15) (-3.22651e-35 -5.13448e-15 -1.93571e-09) (-1.77128e-35 -5.62925e-16 2.26105e-09))
2((0 0 0) (3.22651e-35 5.13448e-15 1.93571e-09))
1((-2.03279e-32 -1.82311e-10 2.1349e-16))
0()
2((-1.20167e-37 6.67252e-16 -2.86644e-10) (-5.82999e-32 -7.7506e-10 -3.92321e-15))
3((1.20167e-37 -6.67252e-16 2.86644e-10) (5.01228e-42 -1.33037e-09 -2.0993e-15) (1.74164e-36 -3.73156e-16 1.90248e-10))
3((0 0 0) (-4.06244e-36 -1.56385e-17 1.56034e-10) (-1.74164e-36 3.73156e-16 -1.90248e-10))
3((4.06244e-36 1.56385e-17 -1.56034e-10) (0 0 0) (3.18269e-37 -1.62136e-14 1.63108e-09))
2((-1.71194e-39 3.32155e-09 -1.2911e-14) (-3.18269e-37 1.62136e-14 -1.63108e-09))
2((1.10204e-35 -5.86394e-16 -1.04615e-09) (-1.27093e-41 3.51267e-10 1.92272e-16))
3((-1.10204e-35 5.86394e-16 1.04615e-09) (7.40443e-31 -1.7225e-10 -1.36949e-15) (0 0 0))
4((8.07224e-36 3.26623e-15 5.18019e-10) (9.15574e-38 -4.33304e-10 -8.77503e-16) (0 0 0) (3.34137e-36 6.35763e-11 -1.68462e-16))
4((-8.07224e-36 -3.26623e-15 -5.18019e-10) (-1.41531e-35 2.66931e-15 -1.1752e-09) (0 0 0) (2.72448e-31 2.83467e-09 -1.39571e-15))
1((1.41531e-35 -2.66931e-15 1.1752e-09))
2((-8.98662e-36 -4.10409e-15 -1.93335e-09) (2.98549e-32 -6.05202e-10 4.68325e-16))
4((-1.62207e-41 -8.03393e-10 2.9197e-15) (8.98662e-36 4.10409e-15 1.93335e-09) (-1.09566e-36 1.21894e-15 -2.71607e-10) (-3.174e-32 -2.99527e-10 -1.21131e-15))
3((-2.64074e-37 1.22469e-15 6.20994e-10) (1.09566e-36 -1.21894e-15 2.71607e-10) (0 0 0))
2((2.64074e-37 -1.22469e-15 -6.20994e-10) (2.30287e-31 3.3943e-10 -4.44769e-15))
1((-3.17649e-29 8.77662e-10 -3.04801e-15))
1((-2.86248e-42 4.462e-10 9.7004e-16))
2((2.8076e-41 7.61202e-10 2.46552e-15) (-1.76753e-35 -4.78485e-15 2.39871e-09))
3((1.78977e-30 1.70606e-09 4.52043e-15) (-3.63781e-36 -8.09189e-15 -2.22586e-09) (1.76753e-35 4.78485e-15 -2.39871e-09))
2((3.63781e-36 8.09189e-15 2.22586e-09) (0 0 0))
2((8.25324e-26 -8.17224e-11 -4.83614e-18) (0 0 0))
4((0 0 0) (0 0 0) (1.5622e-30 -9.46475e-10 4.91672e-15) (0 0 0))
3((0 0 0) (0 0 0) (3.64366e-33 6.17072e-10 1.03811e-15))
4((-9.68103e-38 4.93313e-16 -5.52261e-10) (4.4734e-32 -3.25034e-10 5.46148e-16) (5.37644e-32 2.28161e-09 3.16282e-15) (0 0 0))
4((9.68103e-38 -4.93313e-16 5.52261e-10) (1.59867e-42 -1.91951e-09 4.11569e-15) (1.26726e-37 3.56278e-15 -7.59868e-10) (3.66401e-42 1.60916e-09 -3.18802e-15))
3((-1.26726e-37 -3.56278e-15 7.59868e-10) (0 0 0) (1.2082e-32 4.56613e-11 -4.731e-16))
2((3.28828e-42 -3.48396e-10 5.72598e-16) (-8.95333e-42 -6.08128e-10 3.84636e-15))
3((-2.26518e-38 7.08462e-10 3.17439e-15) (4.44123e-36 2.0504e-15 2.29865e-10) (-1.2585e-38 2.28017e-09 8.83477e-15))
4((0 0 0) (4.48385e-31 7.1008e-10 -5.13788e-16) (-1.21706e-30 7.45389e-10 2.12382e-15) (-4.44123e-36 -2.0504e-15 -2.29865e-10))
4((0 0 0) (-1.48652e-39 5.56776e-10 3.80964e-16) (2.06681e-38 2.18113e-09 5.56165e-15) (0 0 0))
4((3.19016e-38 4.13474e-16 2.00941e-10) (3.09694e-38 1.40243e-11 2.6552e-17) (2.91719e-37 -8.61391e-11 -5.1873e-17) (0 0 0))
3((-3.19016e-38 -4.13474e-16 -2.00941e-10) (-8.11341e-39 5.43298e-10 -2.05023e-16) (0 0 0))
2((0 0 0) (-2.72721e-43 -5.71175e-10 -5.95071e-16))
3((0 0 0) (5.43163e-30 1.85263e-10 4.23797e-16) (-1.04622e-30 1.00345e-09 6.65209e-16))
4((8.17811e-41 7.38312e-10 -3.8064e-16) (1.60439e-40 1.56011e-09 -4.36486e-15) (0 0 0) (9.43647e-38 -7.21618e-17 -7.1828e-10))
3((-4.41656e-42 7.42611e-12 2.57403e-16) (0 0 0) (-9.43647e-38 7.21618e-17 7.1828e-10))
2((2.03279e-32 1.82311e-10 -2.1349e-16) (2.60022e-31 -2.14173e-10 -5.42699e-16))
2((-1.65453e-37 3.98513e-10 -8.97374e-16) (0 0 0))
3((-2.80517e-31 4.07654e-10 2.28017e-16) (5.82999e-32 7.7506e-10 3.92321e-15) (0 0 0))
3((-4.86332e-43 7.94331e-10 2.13201e-15) (-5.01228e-42 1.33037e-09 2.0993e-15) (3.87564e-40 1.90981e-15 9.82063e-10))
4((-1.15349e-40 3.52062e-15 -1.32689e-09) (-6.04193e-43 -4.53327e-10 3.6281e-16) (0 0 0) (-3.87564e-40 -1.90981e-15 -9.82063e-10))
4((1.15349e-40 -3.52062e-15 1.32689e-09) (0 0 0) (0 0 0) (3.43591e-44 2.87763e-11 -4.89349e-17))
3((3.65576e-39 -6.095e-10 2.22203e-15) (0 0 0) (1.71194e-39 -3.32155e-09 1.2911e-14))
2((-6.11886e-41 4.28078e-10 8.91534e-16) (1.27093e-41 -3.51267e-10 -1.92272e-16))
3((1.47137e-36 -6.69729e-16 -2.41007e-10) (-8.07133e-31 -1.85809e-10 -3.60064e-16) (-7.40443e-31 1.7225e-10 1.36949e-15))
4((-3.88439e-39 6.15436e-10 -5.5007e-16) (-9.15574e-38 4.33304e-10 8.77503e-16) (2.0561e-37 2.85176e-16 2.55763e-10) (-1.47137e-36 6.69729e-16 2.41007e-10))
4((-1.09027e-32 6.74982e-10 -8.48326e-17) (-2.0561e-37 -2.85176e-16 -2.55763e-10) (0 0 0) (-2.72448e-31 -2.83467e-09 1.39571e-15))
2((0 0 0) (3.6856e-42 -5.5784e-10 -8.07501e-16))
3((0 0 0) (-2.98549e-32 6.05202e-10 -4.68325e-16) (-8.51446e-31 -1.02515e-11 1.47581e-16))
4((0 0 0) (1.54647e-41 3.65073e-10 -2.20626e-16) (1.62207e-41 8.03393e-10 -2.9197e-15) (0 0 0))
3((-1.31282e-32 6.4704e-11 -7.67265e-17) (0 0 0) (0 0 0))
2((-3.17365e-32 -3.82198e-11 2.59576e-16) (-2.30287e-31 -3.3943e-10 4.44769e-15))
2((4.23568e-43 -7.50839e-10 -1.21646e-15) (2.50281e-40 -6.59022e-16 -1.15837e-10))
3((4.87643e-42 1.27226e-10 -1.15381e-16) (-2.50281e-40 6.59022e-16 1.15837e-10) (2.86248e-42 -4.462e-10 -9.7004e-16))
3((-1.78074e-41 -9.83607e-10 -7.03402e-16) (-2.8076e-41 -7.61202e-10 -2.46552e-15) (0 0 0))
4((-2.80966e-30 -2.72819e-10 -4.30261e-19) (-1.78977e-30 -1.70606e-09 -4.52043e-15) (0 0 0) (0 0 0))
2{(0 0 0)}
3((-8.25324e-26 8.17224e-11 4.83614e-18) (-1.30928e-25 7.87353e-11 2.85781e-18) (5.74583e-32 1.55198e-15 3.49854e-10))
4((0 0 0) (-6.87082e-32 -2.57274e-10 9.67419e-17) (0 0 0) (-5.74583e-32 -1.55198e-15 -3.49854e-10))
3((0 0 0) (0 0 0) (-3.64366e-33 -6.17072e-10 -1.03811e-15))
3((1.67303e-38 6.67593e-17 -2.87833e-10) (0 0 0) (-4.4734e-32 3.25034e-10 -5.46148e-16))
4((-1.59867e-42 1.91951e-09 -4.11569e-15) (-1.67303e-38 -6.67593e-17 2.87833e-10) (2.02368e-42 2.88954e-10 -1.58292e-16) (0 0 0))
4((1.71083e-37 5.51856e-16 1.47593e-10) (0 0 0) (-1.2082e-32 -4.56613e-11 4.731e-16) (-2.50811e-31 -3.59204e-10 3.70779e-17))
4((-3.28828e-42 3.48396e-10 -5.72598e-16) (-1.71083e-37 -5.51856e-16 -1.47593e-10) (-2.58383e-42 1.29629e-10 -1.36007e-17) (0 0 0))
3((2.26518e-38 -7.08462e-10 -3.17439e-15) (0 0 0) (-1.0586e-39 -1.95514e-10 -1.81022e-16))
3((-4.48385e-31 -7.1008e-10 5.13788e-16) (1.69731e-37 1.63094e-16 4.22432e-10) (1.28289e-30 -1.39072e-09 6.83615e-16))
4((1.48652e-39 -5.56776e-10 -3.80964e-16) (-1.69731e-37 -1.63094e-16 -4.22432e-10) (1.62691e-40 3.20002e-10 -4.26707e-16) (1.71034e-37 1.29232e-15 -2.40796e-10))
4((-3.09694e-38 -1.40243e-11 -2.6552e-17) (-3.38891e-39 -8.50704e-10 6.11973e-16) (-1.71034e-37 -1.29232e-15 2.40796e-10) (-2.87504e-38 2.5382e-16 3.74515e-10))
4((8.11341e-39 -5.43298e-10 2.05023e-16) (3.55964e-39 -6.41736e-11 1.63127e-17) (7.20773e-40 -7.09962e-16 -2.22188e-10) (2.87504e-38 -2.5382e-16 -3.74515e-10))
2((-7.20773e-40 7.09962e-16 2.22188e-10) (2.72721e-43 5.71175e-10 5.95071e-16))
3((-7.30525e-30 -5.40852e-10 -1.2753e-16) (-1.20023e-35 -6.80182e-16 2.69614e-10) (-5.43163e-30 -1.85263e-10 -4.23797e-16))
4((-8.17811e-41 -7.38312e-10 3.8064e-16) (-2.19554e-41 -5.38849e-10 -5.62835e-16) (1.20023e-35 6.80182e-16 -2.69614e-10) (5.69161e-37 -2.43143e-16 4.08657e-10))
4((4.41656e-42 -7.42611e-12 -2.57403e-16) (1.69509e-37 -1.35416e-15 -6.64506e-10) (-5.69161e-37 2.43143e-16 -4.08657e-10) (1.12303e-42 6.41058e-10 3.20982e-16))
3((-6.65533e-31 -8.81979e-11 1.70069e-16) (-1.69509e-37 1.35416e-15 6.64506e-10) (-2.60022e-31 2.14173e-10 5.42699e-16))
2((-7.97442e-37 9.72982e-15 -9.22946e-10) (1.65453e-37 -3.98513e-10 8.97374e-16))
4((2.80517e-31 -4.07654e-10 -2.28017e-16) (-1.46497e-30 1.02905e-10 -1.07499e-16) (3.00599e-37 -4.42665e-16 3.18237e-10) (7.97442e-37 -9.72982e-15 9.22946e-10))
3((4.86332e-43 -7.94331e-10 -2.13201e-15) (-3.00599e-37 4.42665e-16 -3.18237e-10) (-3.3612e-43 1.40633e-10 1.57671e-16))
3((6.04193e-43 4.53327e-10 -3.6281e-16) (-1.53448e-43 -2.15194e-10 -9.36759e-18) (0 0 0))
3((0 0 0) (-1.9134e-44 7.92899e-10 6.94529e-17) (-3.43591e-44 -2.87763e-11 4.89349e-17))
1((-3.65576e-39 6.095e-10 -2.22203e-15))
3((6.11886e-41 -4.28078e-10 -8.91534e-16) (1.52394e-40 -6.71055e-10 -4.25246e-16) (7.04954e-38 1.53897e-16 -1.6605e-10))
3((2.9047e-30 4.12815e-10 -4.52591e-16) (-7.04954e-38 -1.53897e-16 1.6605e-10) (8.07133e-31 1.85809e-10 3.60064e-16))
3((3.88439e-39 -6.15436e-10 5.5007e-16) (0 0 0) (-2.34998e-40 7.00765e-16 7.57011e-10))
4((1.09027e-32 -6.74982e-10 8.48326e-17) (2.34998e-40 -7.00765e-16 -7.57011e-10) (1.97646e-34 5.66195e-11 5.14017e-17) (0 0 0))
2((-3.6856e-42 5.5784e-10 8.07501e-16) (0 0 0))
3((0 0 0) (-1.33758e-30 -2.7106e-10 -1.64185e-15) (8.51446e-31 1.02515e-11 -1.47581e-16))
4((-1.54647e-41 -3.65073e-10 2.20626e-16) (0 0 0) (4.27874e-41 -1.79517e-10 -4.41107e-16) (-2.10585e-36 5.05604e-16 -9.6203e-11))
4((1.31282e-32 -6.4704e-11 7.67265e-17) (-5.60966e-30 -5.03451e-10 -3.41414e-16) (1.5831e-35 4.61585e-15 1.12779e-09) (2.10585e-36 -5.05604e-16 9.6203e-11))
4((3.17365e-32 3.82198e-11 -2.59576e-16) (0 0 0) (-1.5831e-35 -4.61585e-15 -1.12779e-09) (0 0 0))
3((-4.23568e-43 7.50839e-10 1.21646e-15) (2.25503e-42 1.12511e-10 6.39125e-16) (0 0 0))
3((-4.87643e-42 -1.27226e-10 1.15381e-16) (-3.06853e-48 -2.75618e-16 -6.15353e-10) (0 0 0))
3((1.78074e-41 9.83607e-10 7.03402e-16) (3.19387e-42 4.7108e-10 -1.99008e-16) (3.06853e-48 2.75618e-16 6.15353e-10))
3((2.80966e-30 2.72819e-10 4.30261e-19) (9.32858e-30 -2.42914e-11 -4.1299e-18) (0 0 0))
3((0 0 0) (0 0 0) (-3.467e-43 5.51757e-11 1.19036e-19))
3((1.38594e-25 3.59806e-10 4.60286e-16) (1.30928e-25 -7.87353e-11 -2.85781e-18) (0 0 0))
3((3.1358e-32 6.95339e-11 2.8988e-17) (6.87082e-32 2.57274e-10 -9.67419e-17) (0 0 0))
2{(0 0 0)}
1((0 0 0))
3((-2.02368e-42 -2.88954e-10 1.58292e-16) (0 0 0) (-9.4463e-43 9.03168e-11 8.02032e-17))
4((0 0 0) (0 0 0) (2.50811e-31 3.59204e-10 -3.70779e-17) (-1.18918e-37 9.78261e-16 2.59352e-10))
4((1.40577e-42 -5.09546e-10 -5.9409e-16) (2.58383e-42 -1.29629e-10 1.36007e-17) (6.58536e-39 3.87879e-16 -6.29505e-11) (1.18918e-37 -9.78261e-16 -2.59352e-10))
3((-6.58536e-39 -3.87879e-16 6.29505e-11) (4.90898e-39 -7.44428e-10 -3.04748e-16) (1.0586e-39 1.95514e-10 1.81022e-16))
2((-2.01488e-30 5.69843e-10 -8.51834e-17) (-1.28289e-30 1.39072e-09 -6.83615e-16))
3((-5.32421e-42 -8.50127e-11 -9.45451e-18) (-1.62691e-40 -3.20002e-10 4.26707e-16) (6.11016e-38 2.06138e-15 -4.35916e-10))
3((-3.58922e-38 1.64782e-16 1.84335e-11) (-6.11016e-38 -2.06138e-15 4.35916e-10) (3.38891e-39 8.50704e-10 -6.11973e-16))
4((3.58922e-38 -1.64782e-16 -1.84335e-11) (-3.55964e-39 6.41736e-11 -1.63127e-17) (0 0 0) (-7.35823e-41 5.21408e-11 3.02966e-17))
2((-7.83454e-46 -1.27549e-10 -1.50008e-15) (0 0 0))
2((7.30525e-30 5.40852e-10 1.2753e-16) (4.53432e-37 6.91156e-16 -7.49853e-10))
4((2.19554e-41 5.38849e-10 5.62835e-16) (-4.53432e-37 -6.91156e-16 7.49853e-10) (-4.46583e-39 -7.72781e-16 3.26436e-10) (4.49044e-42 3.17857e-10 -4.1435e-17))
4((4.46583e-39 7.72781e-16 -3.26436e-10) (0 0 0) (-1.12303e-42 -6.41058e-10 -3.20982e-16) (0 0 0))
3((0 0 0) (6.65533e-31 8.81979e-11 -1.70069e-16) (0 0 0))
2((0 0 0) (-4.19815e-43 -1.86142e-10 8.11559e-17))
4((1.46497e-30 -1.02905e-10 1.07499e-16) (0 0 0) (0 0 0) (0 0 0))
4((-1.99247e-44 -2.64499e-10 2.69811e-16) (3.3612e-43 -1.40633e-10 -1.57671e-16) (0 0 0) (0 0 0))
3((0 0 0) (1.53448e-43 2.15194e-10 9.36759e-18) (2.15262e-40 -1.50011e-15 2.91231e-10))
4((0 0 0) (1.9134e-44 -7.92899e-10 -6.94529e-17) (0 0 0) (-2.15262e-40 1.50011e-15 -2.91231e-10))
1((0 0 0))
3((-1.25009e-41 -4.16988e-11 -1.1247e-17) (-1.52394e-40 6.71055e-10 4.25246e-16) (-1.48973e-36 -2.31004e-17 -4.11075e-10))
4((-3.94391e-37 2.59682e-16 6.13571e-10) (-2.9047e-30 -4.12815e-10 4.52591e-16) (1.48973e-36 2.31004e-17 4.11075e-10) (1.56598e-30 8.61596e-11 -1.8741e-17))
4((3.94391e-37 -2.59682e-16 -6.13571e-10) (-8.37533e-43 1.44549e-10 -4.43043e-17) (0 0 0) (-2.61028e-36 -3.73232e-16 -6.96237e-10))
3((-1.47678e-36 -9.70712e-11 5.92405e-17) (-1.97646e-34 -5.66195e-11 -5.14017e-17) (2.61028e-36 3.73232e-16 6.96237e-10))
2((0 0 0) (-1.88342e-41 5.58747e-10 -8.48996e-16))
4((0 0 0) (1.33758e-30 2.7106e-10 1.64185e-15) (0 0 0) (0 0 0))
4((-4.27874e-41 1.79517e-10 4.41107e-16) (2.48417e-36 -2.12811e-16 4.6442e-11) (0 0 0) (0 0 0))
4((-2.48417e-36 2.12811e-16 -4.6442e-11) (5.60966e-30 5.03451e-10 3.41414e-16) (1.0632e-30 1.96901e-10 4.93604e-16) (-7.48115e-36 -8.47658e-16 -2.05537e-10))
2((0 0 0) (7.48115e-36 8.47658e-16 2.05537e-10))
3((-2.25503e-42 -1.12511e-10 -6.39125e-16) (0 0 0) (-2.29318e-42 -1.28997e-09 2.09415e-16))
2{(0 0 0)}
3((0 0 0) (0 0 0) (-3.19387e-42 -4.7108e-10 1.99008e-16))
4((0 0 0) (-9.32858e-30 2.42914e-11 4.1299e-18) (0 0 0) (6.74846e-30 5.31979e-10 -2.88922e-16))
3((-1.74881e-43 -9.99582e-11 8.25884e-17) (3.467e-43 -5.51757e-11 -1.19036e-19) (0 0 0))
2((-1.38594e-25 -3.59806e-10 -4.60286e-16) (0 0 0))
3((0 0 0) (-3.1358e-32 -6.95339e-11 -2.8988e-17) (0 0 0))
3((6.17784e-32 -1.07891e-09 -4.81872e-15) (0 0 0) (0 0 0))
0()
2((-6.86365e-40 2.31411e-16 -4.78573e-11) (9.4463e-43 -9.03168e-11 -8.02032e-17))
3((9.26669e-40 -3.64571e-15 -8.12818e-10) (0 0 0) (6.86365e-40 -2.31411e-16 4.78573e-11))
3((-1.40577e-42 5.09546e-10 5.9409e-16) (-9.26669e-40 3.64571e-15 8.12818e-10) (0 0 0))
3((0 0 0) (-4.90898e-39 7.44428e-10 3.04748e-16) (-1.04922e-39 6.36074e-10 2.39686e-15))
1((2.01488e-30 -5.69843e-10 8.51834e-17))
2((5.32421e-42 8.50127e-11 9.45451e-18) (-1.18123e-39 -5.64501e-16 1.05955e-10))
3((7.4277e-40 1.12031e-16 2.04193e-10) (1.18123e-39 5.64501e-16 -1.05955e-10) (1.1517e-45 -2.98469e-10 1.21261e-15))
3((-7.4277e-40 -1.12031e-16 -2.04193e-10) (0 0 0) (7.35823e-41 -5.21408e-11 -3.02966e-17))
3((7.83454e-46 1.27549e-10 1.50008e-15) (0 0 0) (-4.89776e-45 1.27714e-09 6.36436e-16))
1((9.88743e-40 2.11151e-16 -3.255e-10))
2((-9.88743e-40 -2.11151e-16 3.255e-10) (-4.49044e-42 -3.17857e-10 4.1435e-17))
2((2.50094e-38 -1.06788e-15 -3.79918e-10) (0 0 0))
2((0 0 0) (-2.50094e-38 1.06788e-15 3.79918e-10))
2((7.75401e-39 -7.73646e-15 -1.29182e-09) (4.19815e-43 1.86142e-10 -8.11559e-17))
2((-7.75401e-39 7.73646e-15 1.29182e-09) (0 0 0))
2((1.99247e-44 2.64499e-10 -2.69811e-16) (5.98734e-43 4.76409e-18 -5.44917e-10))
2((-1.78008e-43 -3.16861e-15 6.55184e-10) (-5.98734e-43 -4.76409e-18 5.44917e-10))
3((1.78008e-43 3.16861e-15 -6.55184e-10) (0 0 0) (1.59163e-44 3.71807e-15 -2.95766e-10))
2((-1.50965e-50 -4.4754e-10 -5.60003e-16) (-1.59163e-44 -3.71807e-15 2.95766e-10))
2((-1.30276e-38 -2.28537e-17 1.28495e-10) (1.25009e-41 4.16988e-11 1.1247e-17))
3((1.30276e-38 2.28537e-17 -1.28495e-10) (0 0 0) (-1.56598e-30 -8.61596e-11 1.8741e-17))
3((8.37533e-43 -1.44549e-10 4.43043e-17) (-1.35384e-38 -5.91546e-17 -1.24011e-10) (0 0 0))
2((1.35384e-38 5.91546e-17 1.24011e-10) (1.47678e-36 9.70712e-11 -5.92405e-17))
2((3.43284e-37 6.85546e-15 9.70112e-10) (1.88342e-41 -5.58747e-10 8.48996e-16))
3((6.53415e-38 1.68445e-16 2.63237e-10) (0 0 0) (-3.43284e-37 -6.85546e-15 -9.70112e-10))
3((-6.53415e-38 -1.68445e-16 -2.63237e-10) (-7.76668e-38 4.18572e-16 -9.70239e-11) (0 0 0))
3((0 0 0) (-1.0632e-30 -1.96901e-10 -4.93604e-16) (7.76668e-38 -4.18572e-16 9.70239e-11))
1((0 0 0))
3((9.29352e-43 3.06272e-10 -2.58753e-16) (2.29318e-42 1.28997e-09 -2.09415e-16) (1.34712e-48 -8.77412e-16 3.49749e-10))
1((-1.34712e-48 8.77412e-16 -3.49749e-10))
2((0 0 0) (-9.82606e-37 -1.47665e-16 2.61205e-10))
2((-6.74846e-30 -5.31979e-10 2.88922e-16) (9.82606e-37 1.47665e-16 -2.61205e-10))
1((1.74881e-43 9.99582e-11 -8.25884e-17))
2((1.31335e-25 -4.96219e-16 4.85178e-10) (0 0 0))
3((0 0 0) (0 0 0) (-1.31335e-25 4.96219e-16 -4.85178e-10))
3((0 0 0) (-6.17784e-32 1.07891e-09 4.81872e-15) (-1.28452e-32 6.39954e-10 -2.46696e-15))
1((2.63623e-51 5.50669e-16 5.93078e-10))
3((0 0 0) (-2.63623e-51 -5.50669e-16 -5.93078e-10) (-6.63681e-50 5.53951e-16 -1.29723e-11))
3((0 0 0) (1.42909e-48 1.43185e-16 7.20964e-10) (6.63681e-50 -5.53951e-16 1.29723e-11))
3((-1.42909e-48 -1.43185e-16 -7.20964e-10) (0 0 0) (-3.26848e-47 8.17855e-15 1.38353e-09))
2((3.26848e-47 -8.17855e-15 -1.38353e-09) (1.04922e-39 -6.36074e-10 -2.39686e-15))
1((-4.43567e-60 -5.48234e-10 -1.66047e-15))
1((4.83854e-58 -5.64887e-11 -7.59095e-17))
2((-2.2131e-50 1.02083e-15 -5.99858e-10) (-1.1517e-45 2.98469e-10 -1.21261e-15))
3((2.2131e-50 -1.02083e-15 5.99858e-10) (1.45596e-51 -3.30081e-14 -2.13485e-09) (0 0 0))
2((-1.45596e-51 3.30081e-14 2.13485e-09) (4.89776e-45 -1.27714e-09 -6.36436e-16))
2((0 0 0) (5.78607e-69 1.3655e-16 1.46525e-10))
3((-1.07492e-74 -2.98389e-10 1.09944e-15) (1.27439e-69 1.31031e-15 4.29662e-10) (-5.78607e-69 -1.3655e-16 -1.46525e-10))
2((-2.5866e-74 -1.36037e-10 6.25119e-16) (-1.27439e-69 -1.31031e-15 -4.29662e-10))
1((-2.28095e-64 -7.63554e-11 1.58086e-15))
1((-3.40756e-46 1.93526e-10 1.03502e-16))
1((1.15528e-61 -4.71631e-11 -3.34454e-16))
2((0 0 0) (-3.19472e-63 -1.93112e-09 -8.43768e-15))
3((0 0 0) (-2.73843e-57 -2.18663e-15 1.50354e-09) (-5.95786e-64 3.57899e-10 1.01779e-15))
3((3.30909e-56 6.16926e-15 -1.15944e-09) (-1.80935e-62 2.85381e-11 1.30944e-18) (2.73843e-57 2.18663e-15 -1.50354e-09))
4((1.50965e-50 4.4754e-10 5.60003e-16) (-3.30909e-56 -6.16926e-15 1.15944e-09) (6.94514e-51 2.31193e-09 -8.20096e-15) (0 0 0))
3((-1.51271e-63 -5.58325e-10 1.79848e-15) (4.19833e-58 5.75792e-15 -2.5879e-09) (0 0 0))
3((-7.02229e-66 -7.21997e-10 3.63322e-15) (-4.19833e-58 -5.75792e-15 2.5879e-09) (-1.28846e-60 1.94794e-15 2.8325e-10))
1((1.28846e-60 -1.94794e-15 -2.8325e-10))
1((8.72807e-68 -9.29222e-10 1.20868e-15))
2((8.73781e-50 -2.66886e-09 -1.34517e-14) (2.56928e-55 -1.90699e-14 -1.62024e-09))
3((1.13051e-54 8.58559e-17 7.88028e-10) (0 0 0) (-2.56928e-55 1.90699e-14 1.62024e-09))
3((0 0 0) (-1.13051e-54 -8.58559e-17 -7.88028e-10) (-4.22145e-53 3.31559e-15 9.72301e-10))
3((0 0 0) (5.10736e-51 -2.80039e-15 1.39749e-09) (4.22145e-53 -3.31559e-15 -9.72301e-10))
3((-5.10736e-51 2.80039e-15 -1.39749e-09) (0 0 0) (-1.80818e-49 -5.80662e-15 -4.22987e-10))
2((-9.29352e-43 -3.06272e-10 2.58753e-16) (1.80818e-49 5.80662e-15 4.22987e-10))
1((-1.6716e-59 1.20113e-10 3.17201e-16))
2((0 0 0) (6.29839e-66 -4.58488e-16 -3.63674e-10))
3((0 0 0) (-6.29839e-66 4.58488e-16 3.63674e-10) (3.02973e-66 -3.74581e-15 -9.72481e-10))
2((0 0 0) (-3.02973e-66 3.74581e-15 9.72481e-10))
2((-3.45109e-27 2.63718e-16 7.21514e-11) (-2.83876e-27 -2.30767e-10 4.18667e-17))
2((3.45109e-27 -2.63718e-16 -7.21514e-11) (0 0 0))
1((1.28452e-32 -6.39954e-10 2.46696e-15))
1((-5.01334e-41 2.44488e-10 -4.55133e-16))
3((9.90427e-43 7.25263e-11 8.46784e-17) (0 0 0) (4.19969e-50 -1.95257e-15 -9.79961e-10))
4((1.78659e-48 -2.72989e-10 -7.85187e-17) (0 0 0) (-1.57072e-51 2.51447e-17 7.74015e-10) (-4.19969e-50 1.95257e-15 9.79961e-10))
4((0 0 0) (1.57072e-51 -2.51447e-17 -7.74015e-10) (2.20323e-53 1.78757e-15 -1.89258e-10) (0 0 0))
2((-2.20323e-53 -1.78757e-15 1.89258e-10) (3.14511e-59 8.83078e-10 -2.39472e-15))
2((4.8095e-61 1.21328e-09 -3.05383e-16) (4.43567e-60 5.48234e-10 1.66047e-15))
3((1.64702e-64 -9.96549e-16 -3.62712e-10) (-4.83854e-58 5.64887e-11 7.59095e-17) (-1.266e-58 4.92626e-10 1.88923e-15))
3((2.51325e-64 2.78031e-16 8.46272e-10) (-9.31573e-67 1.95432e-10 1.60631e-16) (-1.64702e-64 9.96549e-16 3.62712e-10))
4((-2.51325e-64 -2.78031e-16 -8.46272e-10) (-1.93977e-57 1.64965e-09 1.87981e-16) (0 0 0) (0 0 0))
1((0 0 0))
3((0 0 0) (2.1922e-69 -4.20877e-16 -4.64979e-10) (-2.29309e-76 -1.41542e-09 2.93513e-15))
4((-1.90619e-75 7.27249e-10 -1.92098e-15) (-2.1922e-69 4.20877e-16 4.64979e-10) (1.07492e-74 2.98389e-10 -1.09944e-15) (-2.35649e-69 -5.3916e-16 -1.48512e-10))
4((-1.16561e-75 1.23622e-09 -2.37212e-15) (2.5866e-74 1.36037e-10 -6.25119e-16) (3.49236e-70 -6.78129e-16 3.63382e-10) (2.35649e-69 5.3916e-16 1.48512e-10))
3((5.82127e-64 -1.55183e-09 2.19594e-15) (-3.49236e-70 6.78129e-16 -3.63382e-10) (2.28095e-64 7.63554e-11 -1.58086e-15))
3((3.40756e-46 -1.93526e-10 -1.03502e-16) (9.18423e-48 7.55031e-13 5.42333e-19) (2.0803e-53 -2.75318e-15 8.33621e-10))
4((-9.64883e-61 -5.81374e-10 -1.59353e-16) (-1.15528e-61 4.71631e-11 3.34454e-16) (0 0 0) (-2.0803e-53 2.75318e-15 -8.33621e-10))
3((-1.40242e-63 6.73739e-10 4.43135e-16) (0 0 0) (3.19472e-63 1.93112e-09 8.43768e-15))
3((0 0 0) (2.32898e-65 -9.42793e-10 5.38953e-18) (5.95786e-64 -3.57899e-10 -1.01779e-15))
4((0 0 0) (8.06173e-64 2.33421e-10 2.1323e-16) (1.80935e-62 -2.85381e-11 -1.30944e-18) (0 0 0))
4((-5.68061e-52 -1.39787e-10 1.18702e-17) (-6.94514e-51 -2.31193e-09 8.20096e-15) (0 0 0) (1.15681e-57 1.15924e-15 1.77467e-10))
4((1.35393e-64 -2.84783e-11 1.06844e-15) (-2.56253e-59 -2.08743e-15 3.07175e-10) (1.51271e-63 5.58325e-10 -1.79848e-15) (-1.15681e-57 -1.15924e-15 -1.77467e-10))
4((3.11276e-61 3.26369e-16 -4.02982e-10) (1.88302e-66 -9.59251e-11 -4.99724e-16) (2.56253e-59 2.08743e-15 -3.07175e-10) (7.02229e-66 7.21997e-10 -3.63322e-15))
2((-3.11276e-61 -3.26369e-16 4.02982e-10) (-2.60291e-68 2.00892e-10 3.79456e-16))
2((-8.03955e-67 -4.09836e-10 7.72015e-16) (-8.72807e-68 9.29222e-10 -1.20868e-15))
3((-2.63575e-49 6.4376e-10 2.09704e-15) (-1.42154e-55 -5.17215e-15 -7.423e-10) (-8.73781e-50 2.66886e-09 1.34517e-14))
4((-1.06701e-56 -1.57632e-15 7.72672e-10) (0 0 0) (1.42154e-55 5.17215e-15 7.423e-10) (2.77302e-61 7.62909e-10 1.42803e-15))
4((1.06701e-56 1.57632e-15 -7.72672e-10) (0 0 0) (-1.76027e-61 8.31555e-10 1.60796e-15) (-4.45175e-56 7.73932e-16 2.06583e-10))
4((0 0 0) (0 0 0) (0 0 0) (4.45175e-56 -7.73932e-16 -2.06583e-10))
3((0 0 0) (0 0 0) (3.89203e-60 -1.08681e-10 -2.74445e-16))
1((0 0 0))
3((0 0 0) (1.6716e-59 -1.20113e-10 -3.17201e-16) (1.82459e-58 -4.75244e-11 1.21941e-16))
3((1.00054e-61 5.75592e-10 2.14409e-15) (0 0 0) (-3.8009e-56 8.16385e-16 7.4082e-10))
4((-7.25545e-63 5.84706e-11 5.87334e-16) (0 0 0) (3.68086e-57 6.85727e-16 1.69985e-10) (3.8009e-56 -8.16385e-16 -7.4082e-10))
3((0 0 0) (0 0 0) (-3.68086e-57 -6.85727e-16 -1.69985e-10))
3((-2.18477e-26 6.42822e-11 -4.92976e-16) (2.83876e-27 2.30767e-10 -4.18667e-17) (0 0 0))
4((-1.98157e-32 3.96621e-11 7.5678e-17) (0 0 0) (0 0 0) (0 0 0))
1((0 0 0))
3((0 0 0) (8.41077e-40 -2.76954e-10 -5.29794e-16) (5.01334e-41 -2.44488e-10 4.55133e-16))
4((0 0 0) (0 0 0) (-9.90427e-43 -7.25263e-11 -8.46784e-17) (-1.71282e-41 2.50056e-10 2.78466e-16))
4((-1.78659e-48 2.72989e-10 7.85187e-17) (0 0 0) (4.72814e-50 -8.8457e-16 -1.16969e-09) (-2.87275e-46 1.12559e-10 3.93907e-16))
4((0 0 0) (-4.72814e-50 8.8457e-16 1.16969e-09) (-1.00359e-47 2.392e-10 5.61289e-16) (-8.0749e-52 -1.79938e-15 8.98677e-10))
2((8.0749e-52 1.79938e-15 -8.98677e-10) (-3.14511e-59 -8.83078e-10 2.39472e-15))
3((-4.8095e-61 -1.21328e-09 3.05383e-16) (-1.01021e-65 2.78613e-16 2.20856e-10) (-2.19511e-62 -3.71133e-10 -7.2397e-16))
4((1.01021e-65 -2.78613e-16 -2.20856e-10) (-5.30154e-66 -8.80867e-17 -3.35305e-10) (1.266e-58 -4.92626e-10 -1.88923e-15) (6.71483e-60 -1.00864e-09 -1.44248e-15))
4((9.31573e-67 -1.95432e-10 -1.60631e-16) (5.30154e-66 8.80867e-17 3.35305e-10) (9.05454e-67 3.93404e-10 3.70969e-16) (0 0 0))
4((1.93977e-57 -1.64965e-09 -1.87981e-16) (1.33918e-58 -1.80533e-11 3.65722e-17) (0 0 0) (0 0 0))
2{(0 0 0)}
3((-1.12777e-76 7.87179e-10 -5.16454e-17) (0 0 0) (2.29309e-76 1.41542e-09 -2.93513e-15))
4((1.13144e-70 2.39132e-15 5.9469e-10) (0 0 0) (1.90619e-75 -7.27249e-10 1.92098e-15) (6.2216e-75 2.4665e-10 4.59697e-16))
4((-1.13144e-70 -2.39132e-15 -5.9469e-10) (1.16561e-75 -1.23622e-09 2.37212e-15) (-2.28974e-70 1.38884e-16 -3.85315e-10) (1.12495e-75 -1.05187e-10 -1.39866e-16))
3((-5.82127e-64 1.55183e-09 -2.19594e-15) (-2.00299e-63 2.13339e-10 1.2143e-17) (2.28974e-70 -1.38884e-16 3.85315e-10))