/*--------------------------------*- C++ -*----------------------------------*\
| =========                 |                                                 |
| \\      /  F ield         | OpenFOAM: The Open Source CFD Toolbox           |
|  \\    /   O peration     | Version:  2.2.x                                 |
|   \\  /    A nd           | Web:      www.OpenFOAM.org                      |
|    \\/     M anipulation  |                                                 |
\*---------------------------------------------------------------------------*/
FoamFile
{
    version     2.0;
    format      ascii;
    class       vectorField;
    location    "0.01";
    object      U;
}
// * * * * * * * * * * * * * * * * * * * * * * * * * * * * * * * * * * * * * //


2405
(
(8.90922e-25 -1.47926e-07 -9.00402e-07)
(1.08211e-24 -3.58839e-08 4.67048e-06)
(-4.10469e-25 8.66413e-07 4.80868e-06)
(-1.8089e-23 -1.55188e-06 3.98963e-06)
(3.96003e-25 -1.0932e-06 7.7301e-07)
(2.62324e-24 1.49326e-06 3.50074e-06)
(2.11253e-24 2.61999e-07 2.86704e-06)
(2.81857e-24 -1.86249e-07 1.48112e-05)
(-2.66059e-26 1.73129e-06 2.81963e-06)
(3.29342e-26 -3.65541e-08 -4.84476e-08)
(2.38693e-24 -1.38412e-07 3.18284e-06)
(4.49492e-26 -4.56744e-07 6.67808e-08)
(1.2522e-23 2.09026e-07 -5.15206e-06)
(-2.4104e-24 2.28751e-07 4.97604e-06)
(-3.60723e-25 -4.52286e-07 1.86413e-06)
(7.40482e-27 7.7346e-07 1.79167e-07)
(-2.24166e-25 6.2422e-07 2.99439e-06)
(1.17291e-23 -8.11405e-09 -5.31384e-06)
(-6.16456e-24 3.16217e-07 4.0334e-06)
(-2.22158e-28 -5.72653e-08 3.57256e-06)
(3.41031e-26 6.34191e-07 2.17024e-07)
(7.54985e-24 -1.61756e-06 2.71684e-06)
(1.67868e-23 2.13528e-07 1.48103e-05)
(2.22719e-24 -4.2918e-07 2.84739e-06)
(-1.24143e-24 -1.74655e-06 2.44056e-06)
(2.57274e-25 1.65672e-06 8.25909e-07)
(3.26144e-26 1.85719e-06 8.27906e-07)
(2.72002e-24 -3.61111e-07 -1.35504e-05)
(-1.22281e-24 1.30809e-06 2.64893e-06)
(8.22914e-26 -1.07836e-06 1.73393e-07)
(-8.26309e-25 2.91794e-07 3.59466e-06)
(-6.70315e-24 2.54758e-07 3.83856e-06)
(-3.38605e-25 1.47997e-07 3.71554e-07)
(8.90723e-26 2.24856e-07 3.29882e-06)
(3.96132e-28 -1.30642e-07 -8.17205e-08)
(-1.61684e-24 -6.76806e-08 2.54844e-06)
(8.24992e-38 5.80147e-09 -1.46829e-08)
(-6.35647e-26 2.56034e-06 -1.33254e-07)
(-7.18029e-25 9.21364e-07 3.38119e-06)
(-9.9778e-24 9.58984e-07 -1.42373e-05)
(7.73228e-24 -9.71536e-07 5.2362e-06)
(9.9508e-31 -1.22427e-06 8.36376e-07)
(-2.7177e-24 7.06923e-07 4.98232e-06)
(-2.16095e-24 7.80821e-07 7.78688e-06)
(-2.74663e-24 5.18301e-07 -3.52311e-06)
(-8.11038e-26 1.56845e-06 7.20758e-06)
(-7.13262e-30 7.25035e-07 4.45545e-07)
(-2.89835e-24 3.31285e-07 5.62313e-06)
(-1.51002e-29 -1.99476e-06 -6.34196e-07)
(1.69026e-23 -5.11218e-07 -3.88398e-06)
(1.59267e-24 -9.37272e-07 3.78831e-06)
(-4.31597e-26 -1.95406e-06 6.24995e-06)
(-3.70108e-31 5.75889e-08 1.60264e-06)
(2.35582e-25 1.98097e-06 5.67153e-06)
(-4.81482e-24 1.07763e-06 1.27635e-06)
(6.03484e-24 -8.18351e-07 5.39697e-06)
(-9.73995e-31 -2.71907e-07 5.31125e-06)
(-2.63054e-30 3.28652e-07 9.64921e-07)
(-7.4869e-24 -9.77379e-07 6.90697e-06)
(-1.6829e-23 -4.42858e-07 -3.50566e-06)
(-9.47476e-25 -8.57683e-07 7.63695e-06)
(-2.31422e-25 9.53241e-08 6.4607e-06)
(-5.34869e-31 1.22907e-06 2.91332e-07)
(7.10825e-27 8.29295e-07 -6.98967e-07)
(-2.57802e-24 1.45988e-06 1.16001e-05)
(1.07103e-24 4.97455e-07 7.18459e-06)
(1.02028e-31 -1.01572e-06 7.94792e-07)
(6.69626e-25 2.11195e-07 5.44264e-06)
(6.72969e-24 9.04838e-07 5.82335e-06)
(-8.14915e-27 6.48228e-07 -1.92039e-06)
(-1.47677e-31 2.74748e-07 6.09932e-06)
(9.20239e-32 7.37399e-07 8.25599e-08)
(1.61644e-24 4.32286e-07 7.03892e-06)
(-3.77967e-32 4.90104e-07 2.98527e-08)
(-1.23412e-23 8.92613e-06 -3.04888e-07)
(-1.68554e-24 7.30514e-06 6.07026e-07)
(2.70298e-36 -1.00244e-06 4.33544e-07)
(1.32867e-30 -8.40371e-06 -2.74984e-06)
(8.15888e-35 -2.35409e-06 -6.00066e-06)
(8.39568e-32 9.2852e-06 -1.26356e-06)
(-4.29414e-36 3.60355e-06 -4.83072e-06)
(-5.09011e-32 -2.11468e-07 -1.68936e-05)
(-1.9496e-29 2.09263e-06 -5.241e-06)
(-3.6425e-30 -1.64015e-06 -5.8964e-06)
(1.77471e-29 3.98888e-06 1.12186e-07)
(-1.49781e-29 3.99827e-06 -1.12838e-06)
(-8.48626e-24 2.32904e-06 6.74116e-06)
(-3.30942e-29 -4.4155e-06 -6.382e-06)
(1.09534e-33 -2.08957e-06 -4.41575e-06)
(-7.63643e-34 7.68012e-07 -1.9889e-06)
(-4.65809e-31 9.58093e-07 -3.3215e-06)
(0 -1.1182e-06 -3.02274e-06)
(1.48105e-30 -6.34979e-06 -5.59721e-06)
(-3.10113e-35 -5.3799e-06 -3.33005e-06)
(1.32121e-34 6.7372e-06 -2.44238e-06)
(-1.20007e-34 1.5849e-06 -4.88932e-07)
(1.39549e-35 3.15125e-07 -1.65694e-05)
(-1.67874e-34 -5.88699e-06 -3.7941e-06)
(-1.45993e-29 -4.19524e-06 -6.6132e-06)
(-2.69224e-34 1.3816e-06 -5.79938e-06)
(-1.17293e-28 8.56408e-06 -2.36531e-06)
(-3.45975e-34 5.93213e-06 2.97729e-07)
(-1.2133e-30 -8.70546e-06 -4.72203e-06)
(4.80648e-31 -6.26765e-06 -6.52353e-06)
(3.83819e-30 4.55954e-06 -1.1552e-06)
(-4.80007e-30 4.34786e-06 -4.07192e-06)
(7.70982e-28 1.29732e-06 -1.91625e-06)
(4.47305e-41 -5.52549e-07 -3.13117e-06)
(4.14699e-34 1.56638e-06 -6.94163e-06)
(-3.87988e-29 7.11913e-06 -4.51308e-06)
(-6.88787e-35 3.60756e-06 -8.05385e-07)
(-1.00905e-24 -5.63347e-08 -2.76902e-07)
(-2.44184e-29 -3.75244e-07 2.00042e-06)
(-9.42149e-32 -1.07799e-06 1.15883e-05)
(-1.8997e-30 -3.01862e-06 -1.80298e-06)
(-4.13603e-36 -1.41809e-06 -1.08123e-06)
(2.83656e-31 1.71344e-06 1.68637e-06)
(2.2512e-40 6.6692e-07 -5.47557e-07)
(-7.91319e-35 -5.27949e-07 -2.66662e-06)
(1.12837e-29 2.01125e-06 -3.86516e-06)
(3.13389e-35 4.30158e-07 -1.89375e-06)
(-1.53726e-35 1.64768e-07 1.29656e-06)
(9.49941e-37 -8.96516e-07 6.4458e-07)
(-1.68133e-38 -7.33987e-07 -3.17382e-06)
(-7.36186e-29 1.05077e-06 2.26576e-07)
(-4.20506e-35 -3.04736e-07 -2.47159e-06)
(2.21036e-36 -5.40812e-07 -4.00904e-07)
(-4.14905e-30 1.53265e-07 -1.78441e-06)
(-1.22563e-35 3.94611e-07 -1.22147e-05)
(6.00335e-30 -1.15632e-06 -1.13903e-06)
(-6.35946e-39 -7.63051e-07 -3.12218e-06)
(9.07006e-39 1.32355e-07 -2.93626e-06)
(-2.44175e-39 -1.59642e-06 7.22923e-07)
(-1.49584e-37 2.42092e-07 -6.96432e-06)
(7.00068e-40 -8.38002e-07 -1.52844e-06)
(3.19735e-29 -1.8312e-06 -3.08296e-06)
(1.59561e-35 1.36723e-06 -4.8132e-06)
(8.66354e-30 2.74193e-06 -4.3156e-06)
(-2.67103e-37 1.00835e-06 -1.64536e-05)
(1.30834e-29 -1.35759e-06 -2.96513e-06)
(-2.91713e-35 -2.1919e-06 -2.54687e-06)
(3.75133e-30 7.10032e-07 1.99417e-06)
(7.7273e-30 1.3891e-06 -1.27795e-06)
(-2.04723e-39 2.68363e-07 -3.40165e-06)
(1.89827e-39 1.37739e-07 -2.91637e-06)
(-3.14575e-35 2.71031e-06 -2.88756e-06)
(8.18126e-29 1.32538e-06 -3.23391e-06)
(6.07174e-36 2.58603e-07 -2.8878e-08)
(3.88003e-24 -2.73172e-07 1.89408e-06)
(8.89191e-30 -1.86827e-06 -4.03188e-07)
(-1.14362e-29 -1.50403e-06 -1.74229e-05)
(5.97413e-31 -1.06978e-06 1.21426e-06)
(4.48468e-36 -3.86985e-07 2.17835e-06)
(2.86212e-30 5.74016e-07 3.37994e-06)
(2.60519e-36 2.01966e-07 2.32701e-06)
(-4.95149e-37 -4.48831e-07 1.81461e-05)
(-1.14868e-29 1.29209e-06 1.80348e-06)
(-5.09829e-37 1.09594e-06 2.20413e-06)
(4.7824e-36 4.846e-07 3.42149e-06)
(-5.17563e-37 -1.20276e-06 9.35772e-07)
(1.64166e-38 -7.00603e-07 1.45395e-06)
(2.04847e-28 -2.33471e-06 4.0526e-06)
(-1.96209e-34 -1.2205e-06 3.98085e-06)
(1.42991e-35 1.10848e-06 1.32981e-06)
(1.39055e-29 9.13042e-07 2.61494e-06)
(3.86226e-35 1.18046e-06 -5.31829e-06)
(8.19947e-30 9.79479e-07 3.69209e-06)
(6.43673e-36 7.42378e-08 2.88306e-06)
(-1.77865e-41 -2.18922e-08 -5.3762e-07)
(8.47707e-43 -7.95231e-07 2.82966e-06)
(9.41915e-38 5.67143e-07 1.85669e-05)
(-5.40405e-37 -4.55698e-07 9.54347e-07)
(-7.84675e-29 1.40266e-07 3.68044e-06)
(-9.19771e-38 1.2753e-07 5.32076e-07)
(-2.64163e-31 9.48204e-07 -6.20528e-07)
(6.26548e-39 -2.09615e-06 1.83802e-05)
(-5.20886e-31 1.73867e-08 4.37933e-06)
(5.26122e-35 9.05506e-07 1.44888e-06)
(8.08054e-29 1.06177e-06 3.98226e-06)
(-5.29856e-30 3.23492e-08 3.06665e-06)
(-4.33469e-36 -2.31032e-07 -1.25406e-05)
(1.3097e-40 4.99465e-07 3.88684e-07)
(-4.01035e-40 -2.18972e-07 1.27424e-06)
(-2.42071e-28 2.75114e-07 4.22055e-06)
(-6.86699e-37 6.79231e-08 2.78651e-09)
(-5.95453e-24 2.0596e-07 2.34519e-06)
(-1.32024e-30 -3.25822e-07 -1.75407e-06)
(1.23841e-29 5.08581e-07 -5.85827e-06)
(-2.6468e-32 3.98808e-07 2.46249e-07)
(-1.7463e-36 2.78684e-07 6.72634e-07)
(-3.26343e-30 5.72879e-07 2.04307e-07)
(-1.93272e-36 -1.86664e-06 2.03299e-06)
(-3.72854e-38 6.25075e-07 3.05823e-06)
(4.09925e-29 -5.10208e-07 1.35973e-06)
(-6.3928e-37 1.79142e-07 5.61432e-07)
(1.11868e-36 6.08944e-07 6.5528e-07)
(-5.28957e-37 5.33893e-07 4.36675e-07)
(1.19957e-38 4.2218e-07 -7.70629e-06)
(-9.81344e-29 -3.09076e-06 9.7117e-07)
(1.10207e-35 -1.61541e-06 3.51298e-06)
(2.42079e-36 1.37018e-06 1.38536e-08)
(-9.40701e-30 1.38525e-06 5.43525e-07)
(1.29787e-36 -5.20576e-07 1.55255e-05)
(-1.64645e-29 3.25299e-06 1.66378e-06)
(2.7095e-36 7.18975e-07 1.84361e-06)
(-1.01906e-37 2.63345e-07 5.96609e-07)
(4.15928e-39 -1.87861e-06 1.27344e-06)
(-9.84716e-41 -1.26087e-06 1.3989e-05)
(1.05988e-35 -1.61186e-06 9.28437e-07)
(4.5042e-29 -3.77144e-07 3.82816e-06)
(2.58826e-35 1.81794e-06 9.92321e-07)
(3.20952e-33 1.50615e-06 -1.83202e-07)
(1.89594e-34 6.89077e-07 7.62333e-06)
(-2.1507e-29 1.53941e-06 2.74591e-06)
(-7.14791e-35 -1.49636e-07 7.70551e-07)
(-9.97325e-29 4.86336e-07 3.05706e-07)
(2.37149e-30 4.09892e-07 9.47048e-07)
(1.12316e-40 -3.40973e-07 -9.0613e-06)
(-2.84552e-41 1.03484e-06 2.66844e-07)
(-2.28906e-36 2.56967e-08 6.38999e-07)
(1.10222e-28 3.55415e-07 4.44456e-06)
(4.10868e-36 9.32474e-08 -1.00106e-07)
(2.91669e-24 -2.97782e-07 5.49951e-08)
(1.13967e-32 -9.55412e-08 -1.08449e-06)
(-2.22294e-30 5.78413e-07 1.17407e-05)
(0 -7.88398e-07 7.52241e-07)
(1.11958e-38 -1.17931e-06 -1.29235e-07)
(3.36958e-32 1.6778e-07 1.23634e-07)
(1.56612e-38 -5.92449e-07 5.53223e-07)
(1.68604e-37 -1.10545e-06 -3.29863e-06)
(-2.00618e-29 -3.33408e-07 6.4745e-08)
(1.42134e-38 1.08322e-07 -1.07619e-07)
(-2.66807e-38 9.08843e-07 3.89475e-07)
(1.15582e-38 -5.45049e-07 2.00299e-07)
(-3.72804e-40 -3.77674e-07 -3.72931e-06)
(-1.29966e-38 -3.3355e-06 7.03928e-07)
(1.30701e-38 -1.6319e-06 5.73134e-07)
(-3.30555e-37 1.30375e-06 -3.9991e-07)
(1.16412e-31 1.84401e-06 7.86518e-07)
(-2.64227e-37 1.86243e-06 -1.14094e-05)
(7.80642e-31 8.77973e-07 -3.93741e-08)
(-7.08293e-42 8.31799e-07 2.95705e-07)
(9.52597e-42 1.44162e-07 -2.61068e-08)
(-2.97278e-42 -1.15693e-06 7.74442e-07)
(3.17111e-43 8.29971e-07 -7.11007e-07)
(2.00047e-37 -1.18428e-06 7.83892e-07)
(1.60514e-29 -1.75082e-06 5.71194e-07)
(8.29714e-37 2.67728e-06 1.17594e-07)
(-2.00922e-35 1.1929e-06 -2.05343e-07)
(-1.0329e-35 -6.07523e-07 4.7107e-06)
(1.01578e-29 -1.57634e-06 3.87708e-07)
(2.99485e-36 -1.12489e-06 2.44461e-07)
(1.13374e-29 1.05041e-06 -6.74213e-08)
(1.23081e-35 4.39555e-07 3.77328e-07)
(-7.83392e-41 7.80871e-07 1.83703e-06)
(2.32291e-47 -3.82784e-07 3.54263e-07)
(1.03247e-35 1.34439e-06 -1.74106e-08)
(8.88346e-29 1.72054e-07 6.04826e-07)
(-2.6431e-42 6.63444e-07 -7.44694e-08)
(-4.49484e-24 4.66271e-06 6.32484e-07)
(2.2692e-24 6.57463e-07 8.06799e-07)
(-7.25135e-27 1.47321e-06 1.6209e-05)
(-8.56751e-50 -5.24222e-06 3.47418e-07)
(1.99722e-43 -7.21953e-06 -8.23977e-07)
(-3.28441e-47 5.51872e-06 -3.70052e-07)
(1.13603e-45 -5.19572e-07 -1.51606e-07)
(-2.05806e-38 -9.97506e-07 -9.72814e-06)
(8.13056e-59 -5.42018e-06 1.77582e-06)
(-9.70905e-57 -1.35118e-06 -3.52033e-07)
(2.25106e-44 4.76803e-06 -8.83483e-07)
(-6.56971e-49 8.59214e-06 3.14809e-08)
(-1.79044e-43 3.89041e-06 1.07413e-05)
(-1.27127e-67 -9.24842e-06 -1.96817e-07)
(9.55824e-68 -3.97053e-06 3.96229e-07)
(3.15451e-68 1.57972e-06 -6.39961e-07)
(2.25374e-63 2.01261e-06 -2.30789e-06)
(7.98217e-45 1.77118e-06 -8.78249e-07)
(-3.22438e-60 -3.3657e-06 -1.58702e-06)
(-3.41399e-58 -5.07663e-06 -3.31596e-06)
(8.4275e-56 3.35313e-06 -3.20956e-07)
(-1.06339e-54 5.20141e-06 1.29616e-06)
(-6.51494e-49 5.04735e-06 4.61925e-06)
(-4.21973e-55 -9.24671e-06 -5.15288e-06)
(1.85634e-56 -5.46482e-06 -2.3647e-06)
(-5.65382e-59 3.2241e-06 -9.18908e-07)
(-2.60249e-67 2.33038e-06 4.44563e-07)
(-2.82643e-48 8.10061e-07 -1.15647e-05)
(-1.7125e-53 -2.71497e-06 -1.94839e-07)
(1.62942e-51 -4.70219e-06 1.39539e-07)
(-1.66222e-49 8.68374e-06 -8.58096e-07)
(-4.85718e-49 3.12136e-06 8.79065e-07)
(2.32665e-41 -1.92463e-06 5.73043e-06)
(4.37271e-58 -2.63564e-06 -7.08961e-08)
(-3.49753e-62 2.60465e-06 -2.17242e-08)
(5.59366e-63 9.53857e-06 -6.78078e-08)
(-1.0918e-63 3.62753e-06 1.20122e-07)
(5.73687e-25 -1.24055e-06 -3.59889e-07)
(-3.5976e-26 1.32349e-07 -1.06584e-07)
(-3.54888e-31 7.3303e-07 2.23625e-06)
(1.36439e-39 9.5826e-08 1.48129e-06)
(-3.33692e-41 -1.59965e-07 -2.86338e-06)
(-4.9447e-47 -8.47321e-07 1.61357e-06)
(-3.13798e-48 -1.66665e-06 1.78037e-06)
(6.48172e-52 -6.09708e-07 7.27896e-06)
(-9.08554e-59 -9.77638e-07 3.07474e-06)
(1.35889e-56 -3.56827e-07 -7.54159e-07)
(-6.36635e-63 2.02522e-06 8.21612e-07)
(5.89262e-55 1.83574e-06 -1.48421e-06)
(-3.04583e-62 3.17889e-07 1.02e-05)
(-3.76196e-68 -1.48372e-06 -3.36943e-06)
(7.99251e-68 -2.77642e-06 5.06069e-08)
(-4.84445e-68 -3.88279e-07 -1.997e-06)
(-1.27751e-62 -1.33913e-07 -3.32398e-06)
(-8.42915e-45 2.87087e-06 -2.42577e-06)
(4.49683e-52 1.77937e-07 -4.83823e-06)
(-9.48464e-55 -1.34795e-06 -1.77481e-06)
(-1.2988e-59 2.07945e-06 4.0802e-06)
(7.47008e-58 1.20032e-06 1.64046e-06)
(2.24401e-49 1.15371e-06 -3.75708e-06)
(2.3374e-56 -3.87677e-06 -1.81975e-06)
(-6.89345e-58 -1.7023e-06 -3.37077e-06)
(1.13828e-59 -1.66376e-08 -1.29704e-07)
(1.31987e-65 7.69347e-07 2.71999e-06)
(1.04996e-47 6.38063e-07 -6.3187e-06)
(-3.96587e-54 2.29765e-06 7.69645e-07)
(8.11563e-55 5.47579e-07 1.85816e-08)
(-1.07177e-54 6.58638e-07 1.47796e-06)
(1.3694e-56 4.12953e-09 2.92168e-06)
(7.27504e-52 4.05439e-09 5.42401e-06)
(-7.27507e-52 -1.40183e-07 3.25307e-06)
(9.87375e-55 2.17455e-06 9.93258e-07)
(-1.02992e-54 2.25049e-07 -6.73703e-07)
(4.25459e-56 1.05349e-06 7.5305e-07)
(3.78519e-25 -4.02378e-07 -3.42999e-06)
(-7.49423e-27 -2.0775e-06 -1.12351e-06)
(2.2767e-28 -1.05638e-06 -2.55712e-05)
(-2.01493e-38 -2.67363e-07 4.91221e-06)
(6.42658e-40 1.12076e-07 -1.56776e-07)
(5.10206e-45 5.61077e-07 1.24641e-06)
(2.6813e-46 2.69333e-07 6.0998e-07)
(-2.45208e-50 -1.62091e-06 -6.75387e-06)
(9.94363e-60 -3.39431e-07 1.25877e-06)
(-4.14129e-57 7.29587e-07 -3.97237e-07)
(3.51889e-63 1.57744e-06 6.46573e-07)
(-5.2822e-56 -4.92541e-07 -4.01087e-06)
(1.39157e-62 -1.80681e-06 -1.29294e-05)
(1.16494e-69 -6.62068e-07 -1.19634e-07)
(-5.70728e-69 -1.24587e-06 3.87248e-06)
(1.22526e-68 4.98289e-07 -2.17013e-06)
(5.05848e-62 5.38672e-07 6.45774e-07)
(4.46983e-46 2.77816e-06 -1.39619e-05)
(-1.91553e-53 6.76505e-07 1.23039e-06)
(5.94908e-56 4.45683e-07 2.58301e-06)
(-1.79638e-59 -6.69406e-07 2.76767e-06)
(-1.03052e-59 -1.94429e-07 1.87495e-06)
(-2.4553e-50 -3.92661e-07 -5.94534e-06)
(-1.42086e-58 -1.02224e-06 5.90224e-06)
(3.70785e-60 -1.94273e-06 1.44729e-06)
(-8.50647e-67 3.71512e-07 4.82519e-06)
(-1.85697e-65 -2.91986e-07 1.29661e-06)
(-6.70916e-48 -4.51641e-07 1.75237e-05)
(7.17322e-55 5.63845e-08 1.45909e-06)
(-8.64896e-55 -9.10473e-07 1.44877e-06)
(1.57601e-55 1.48047e-07 1.74545e-06)
(1.59146e-58 3.06444e-07 -3.45299e-08)
(-6.19444e-62 1.09851e-06 1.2481e-06)
(5.17173e-57 1.39956e-06 2.89424e-06)
(-1.98149e-60 -4.03615e-07 5.60555e-06)
(-2.08837e-61 5.6528e-08 -2.52811e-07)
(8.70287e-63 9.18554e-08 2.44425e-07)
(-4.97685e-25 -6.11586e-07 -2.41895e-06)
(-1.01186e-25 1.00129e-07 -1.16714e-06)
(-1.11624e-33 3.33349e-06 1.95187e-05)
(1.17735e-33 -2.05947e-07 1.59715e-06)
(-6.25194e-35 -2.11515e-06 3.24396e-06)
(1.61339e-36 -1.84733e-07 -8.86961e-09)
(-1.29833e-38 5.6106e-07 3.87749e-07)
(-6.89092e-63 1.78262e-06 1.02129e-05)
(-4.08966e-61 6.57727e-07 1.10178e-06)
(2.66775e-58 7.7533e-07 7.94805e-07)
(5.0868e-66 1.84217e-07 -3.18811e-07)
(3.84867e-57 2.84948e-07 -6.57574e-07)
(-2.41258e-64 -1.43161e-06 1.16383e-05)
(4.57813e-70 -1.47402e-07 3.30421e-06)
(-1.18555e-69 5.04402e-07 1.21519e-06)
(-1.35859e-69 6.61027e-07 1.45516e-07)
(-7.24497e-62 1.19678e-06 2.83897e-06)
(-1.18723e-50 1.52035e-06 1.72939e-05)
(-1.19269e-57 5.35749e-07 6.27801e-06)
(-1.82392e-62 1.32544e-07 1.16577e-06)
(6.54005e-61 2.68991e-07 1.46775e-07)
(-3.25935e-59 -7.19084e-08 -7.12781e-07)
(2.45657e-51 -1.60987e-07 3.50159e-06)
(-8.77094e-59 1.68852e-07 2.9352e-06)
(1.55133e-60 -2.01615e-06 4.54812e-06)
(-1.39959e-62 -3.92248e-07 3.12447e-06)
(1.62082e-65 4.86855e-07 1.53055e-06)
(-4.43519e-48 1.11961e-06 4.88017e-07)
(-4.70729e-55 1.14321e-07 -4.51927e-06)
(4.24347e-57 -8.33259e-08 -2.01357e-06)
(-1.09031e-59 -5.11965e-07 -2.57794e-07)
(5.14563e-62 -5.04513e-07 -5.02909e-06)
(6.51883e-64 2.92576e-07 -6.30134e-06)
(-3.06392e-57 6.81503e-07 2.57501e-07)
(8.11804e-60 2.79984e-07 3.67511e-06)
(2.45284e-62 -6.27325e-08 -6.34916e-07)
(-9.34948e-65 1.68709e-09 -1.72861e-08)
(-1.24923e-25 -9.21051e-07 3.96539e-06)
(7.36062e-29 1.38514e-06 -5.63863e-07)
(1.79095e-31 1.94252e-06 3.07808e-06)
(-1.50583e-31 6.47811e-08 1.31479e-06)
(9.67327e-33 -5.65187e-07 8.31614e-07)
(2.42586e-63 -5.01828e-08 4.58423e-08)
(1.90207e-55 2.48956e-08 -1.39366e-06)
(6.89093e-63 6.03223e-07 7.05926e-06)
(1.55299e-62 8.62238e-08 5.41977e-07)
(-5.29349e-60 -1.58958e-06 1.01492e-06)
(3.51884e-65 -3.12889e-06 -9.72134e-07)
(-2.40044e-59 -1.80764e-07 8.87871e-07)
(4.65137e-69 1.03129e-06 -1.09494e-05)
(-1.83557e-71 -6.97376e-07 2.39205e-06)
(1.33651e-70 -4.68998e-07 -6.93664e-09)
(-7.17225e-70 -2.97113e-07 4.43351e-07)
(3.23863e-62 3.11989e-08 1.09199e-06)
(1.18723e-50 3.86894e-07 -7.84002e-06)
(-8.06518e-58 6.21377e-07 1.22964e-06)
(1.76035e-59 1.93412e-06 2.71381e-08)
(-2.03812e-60 1.67672e-07 -8.60037e-08)
(4.85877e-60 -1.84084e-07 -8.0721e-07)
(-2.4895e-52 -3.54736e-07 3.41968e-06)
(1.5338e-63 -4.60978e-07 1.94353e-07)
(7.80392e-68 -2.658e-08 1.29601e-06)
(4.54382e-70 6.10309e-07 2.25655e-08)
(-9.08026e-67 3.46903e-07 -8.75195e-07)
(3.47114e-48 -6.23952e-08 -9.42894e-06)
(-2.26894e-59 7.39879e-07 -7.62603e-07)
(-9.17578e-61 -1.15037e-08 5.18217e-07)
(-2.19527e-63 -2.49832e-06 -1.00167e-06)
(-1.21046e-64 -5.5381e-07 5.90867e-07)
(-1.34336e-68 2.40451e-06 2.83275e-07)
(2.78529e-58 3.48334e-07 -9.08589e-07)
(-4.01934e-60 -1.5681e-08 3.05189e-07)
(-1.09837e-63 1.93355e-07 1.03309e-06)
(1.1703e-66 2.13875e-07 -4.08347e-06)
(6.25021e-27 2.85201e-07 4.6907e-06)
(-2.64709e-27 9.65479e-07 -1.17259e-06)
(2.64706e-27 1.3693e-07 7.89737e-06)
(-8.52984e-39 -1.93646e-06 5.4415e-07)
(-2.14913e-39 2.92869e-08 -7.96159e-07)
(-4.73763e-42 3.68445e-07 6.35664e-07)
(-1.90207e-55 1.79879e-06 -1.50759e-07)
(2.67756e-54 1.04039e-06 3.49894e-06)
(-1.48716e-64 -2.2884e-07 1.45467e-08)
(3.0521e-72 -6.18327e-06 2.76652e-06)
(-2.04797e-74 -9.88223e-06 9.44483e-07)
(3.07469e-77 1.6173e-06 3.89099e-06)
(-9.85924e-73 3.33296e-06 7.46746e-07)
(-2.09231e-86 -3.98628e-06 1.72147e-07)
(4.83106e-86 -2.25136e-08 3.13507e-06)
(-2.24471e-81 6.25238e-07 1.39538e-07)
(8.77958e-94 1.10665e-06 5.37833e-07)
(0 2.72846e-06 4.00047e-07)
(8.38009e-63 -6.10611e-06 -5.41488e-06)
(-8.01549e-62 2.43659e-06 -1.25815e-06)
(1.11754e-60 6.57522e-06 -4.61276e-07)
(-2.47292e-60 8.46996e-08 1.46908e-07)
(2.6682e-53 1.43766e-06 7.59885e-08)
(-8.41358e-72 -2.19498e-06 -7.79622e-07)
(1.32618e-70 -1.18891e-06 -9.41473e-07)
(-6.86505e-70 3.76666e-06 1.17122e-07)
(2.13062e-68 -2.52246e-07 -3.32089e-07)
(-5.46694e-70 5.41848e-07 -3.02645e-07)
(5.72065e-64 7.75333e-06 7.97313e-06)
(6.26773e-67 -1.37452e-06 7.04367e-06)
(-6.22458e-74 2.00891e-06 3.19157e-07)
(7.76414e-70 -6.8036e-06 7.49012e-06)
(-2.57098e-66 5.89845e-07 4.19788e-06)
(-1.76441e-59 2.05366e-07 -1.05634e-06)
(4.62088e-66 4.09785e-06 6.41619e-07)
(-1.29621e-67 1.81166e-06 5.52721e-06)
(-2.17959e-68 2.8417e-09 4.05328e-06)
(-7.30041e-25 -2.28277e-07 -6.23867e-07)
(7.92405e-32 -2.68037e-07 -5.66724e-06)
(-3.92168e-32 -3.1342e-08 4.48435e-06)
(-3.55386e-37 -8.38537e-08 1.26886e-06)
(5.43137e-37 -2.52277e-08 -4.83401e-07)
(2.00672e-40 -9.0535e-08 9.12005e-07)
(4.08491e-42 -5.64395e-08 -4.10705e-06)
(-2.007e-53 4.84165e-08 6.07713e-06)
(1.05351e-66 -3.41266e-07 -5.02688e-06)
(4.37449e-72 1.95306e-07 3.77148e-06)
(5.81391e-73 6.43543e-07 -1.48424e-06)
(-4.9279e-72 -2.42116e-07 -2.91969e-06)
(1.09408e-72 -2.93481e-07 8.39733e-06)
(3.74673e-81 9.27834e-07 -3.59723e-06)
(-3.46543e-83 3.3894e-07 -2.4748e-06)
(5.18562e-81 -1.35977e-06 3.16731e-06)
(-2.66935e-89 -1.56186e-07 6.76949e-06)
(-3.09263e-79 -5.26911e-07 1.84274e-05)
(-4.08707e-68 -3.07649e-07 6.8376e-07)
(2.50448e-67 1.47171e-06 -6.33806e-07)
(-1.98455e-67 -4.87301e-07 9.84863e-07)
(-1.50698e-69 -1.03015e-06 -4.30503e-06)
(0 3.45209e-07 1.49358e-06)
(3.79603e-78 -1.10021e-06 -4.51911e-06)
(-9.25669e-77 7.63938e-07 -4.37379e-07)
(1.67564e-76 2.67711e-07 -2.74333e-06)
(2.46252e-92 7.01366e-07 -3.8961e-06)
(1.31008e-75 -1.43569e-06 1.28278e-05)
(-6.21008e-64 6.38956e-07 -3.86235e-06)
(-7.56017e-67 4.58385e-07 -2.81033e-06)
(-2.16121e-73 1.03306e-07 1.68031e-07)
(-7.98552e-70 -4.79499e-07 -3.41308e-06)
(-4.10289e-70 -1.15273e-07 -1.67433e-06)
(-8.45924e-84 4.38402e-08 -2.7428e-06)
(-1.56057e-73 2.10729e-07 3.94928e-07)
(7.38404e-75 3.72811e-07 -1.60569e-06)
(-3.95284e-84 3.37762e-09 -1.6752e-09)
(3.15492e-25 8.22811e-08 -3.32714e-06)
(-2.77692e-28 -2.37482e-07 -2.06188e-06)
(1.94909e-32 1.86828e-07 4.55872e-06)
(-1.77802e-36 8.14552e-08 3.99834e-07)
(-1.21591e-38 1.09824e-07 -1.37108e-06)
(-2.06488e-39 -4.00593e-08 7.53085e-08)
(-8.85035e-42 -6.3552e-07 -3.27883e-06)
(-1.80785e-47 -8.27811e-07 -3.89213e-06)
(-1.33557e-68 -3.59055e-08 -3.09287e-06)
(4.04475e-77 -4.4012e-07 -1.17251e-06)
(1.2723e-77 -6.20494e-07 -3.53616e-06)
(-6.6167e-78 -2.05147e-07 -4.13628e-06)
(-1.08154e-73 1.73286e-06 -1.87706e-05)
(-1.96197e-87 -4.78648e-08 -3.37004e-06)
(-8.9072e-88 -1.14812e-06 -1.88306e-06)
(-2.94097e-81 1.60401e-07 1.26617e-07)
(1.8667e-91 2.28657e-07 2.37628e-06)
(-3.87461e-77 9.38023e-07 -1.25835e-05)
(2.43716e-70 7.54904e-07 3.15768e-06)
(-1.5818e-69 -1.06087e-07 4.815e-09)
(-1.00629e-72 -2.70415e-07 6.48187e-07)
(-2.74227e-72 -1.38076e-06 -4.90121e-06)
(1.1364e-78 -7.37292e-07 -1.90828e-05)
(-3.65921e-79 -1.27536e-06 1.01691e-06)
(1.1043e-77 -1.85878e-06 -1.90949e-06)
(-3.38907e-77 7.44627e-07 -3.65989e-06)
(-2.56474e-85 1.89224e-06 -4.84417e-06)
(-1.58134e-72 2.65921e-06 -1.27601e-05)
(5.03662e-65 8.18262e-07 -4.33701e-06)
(1.36767e-67 1.95744e-07 -4.46474e-06)
(-6.13613e-81 -4.94068e-08 -1.73426e-08)
(2.23415e-71 3.58716e-08 -5.21326e-06)
(-9.48334e-84 -3.17545e-06 5.28034e-07)
(1.38005e-82 1.49067e-06 -5.35278e-06)
(1.2154e-75 2.80461e-06 -1.14178e-06)
(-1.54266e-76 4.29762e-07 -4.09152e-06)
(1.14543e-85 6.33454e-09 -1.71078e-07)
(7.54638e-25 1.0295e-06 -2.62814e-06)
(1.19747e-33 7.91684e-08 8.63292e-08)
(-3.8798e-33 -8.78404e-08 -1.7896e-06)
(1.24151e-35 2.7209e-07 -7.26368e-07)
(5.70086e-39 -3.99974e-08 5.37375e-09)
(4.04711e-38 -2.0122e-07 -6.56696e-07)
(4.76554e-42 -4.29892e-07 1.95094e-08)
(-1.30666e-48 -1.28915e-06 1.13679e-05)
(3.55256e-71 -1.33284e-06 1.75325e-07)
(-2.35371e-79 -2.12184e-06 -9.73791e-07)
(-4.52777e-79 5.90416e-07 -5.57081e-07)
(9.65613e-79 1.2146e-06 -3.64291e-07)
(4.02086e-79 7.02348e-07 1.26033e-05)
(-4.50172e-86 3.33086e-06 5.16616e-07)
(2.40221e-87 -3.19766e-07 3.2023e-07)
(-6.65397e-91 -6.23845e-08 -3.34716e-08)
(-7.00154e-92 -2.95895e-07 -7.14328e-07)
(3.84733e-79 -2.3313e-07 -5.69799e-06)
(-3.22064e-71 6.82924e-07 5.16695e-07)
(2.33477e-70 1.7185e-07 9.0986e-07)
(1.03334e-71 1.92905e-07 -1.55893e-07)
(2.20106e-72 -1.29681e-06 -3.83808e-07)
(-6.64602e-78 -1.29752e-06 5.44348e-06)
(2.35378e-80 -2.21109e-07 2.27532e-06)
(-6.7859e-79 -9.23759e-07 -4.35722e-07)
(1.6097e-78 9.06388e-07 -9.2005e-07)
(-2.20393e-86 1.32969e-06 -7.44114e-08)
(6.75298e-74 1.80055e-06 2.32363e-05)
(-1.42326e-66 1.35449e-06 1.41307e-08)
(-7.45274e-69 3.28084e-07 -4.6883e-07)
(6.38656e-76 2.6037e-07 -2.15117e-07)
(-1.40771e-73 1.68076e-07 -7.96883e-07)
(9.48332e-84 -3.64491e-06 4.437e-06)
(2.07788e-87 5.64246e-07 7.96214e-08)
(-7.72994e-86 1.99977e-06 -1.62067e-07)
(1.55344e-78 3.62586e-07 -3.61469e-07)
(-2.18904e-93 1.62526e-07 -3.62652e-06)
(-3.62181e-25 1.73343e-06 3.45387e-06)
(8.53304e-27 1.11228e-06 1.01254e-06)
(-8.00032e-30 1.16096e-06 9.01086e-07)
(1.22955e-29 1.10189e-06 -1.12326e-06)
(-5.35225e-30 -2.14002e-06 1.17216e-07)
(1.05959e-30 -9.37064e-07 -1.49163e-07)
(-2.20798e-33 -1.4388e-07 5.49783e-07)
(-6.18739e-54 1.24023e-06 -1.74926e-05)
(-6.21271e-74 -1.60525e-06 4.28017e-07)
(-2.00585e-84 -1.74636e-06 -4.87352e-07)
(1.18078e-78 7.11464e-07 2.00928e-07)
(-4.9312e-80 7.85991e-07 4.80911e-07)
(-4.02086e-79 2.6005e-06 -7.456e-06)
(2.04656e-86 -4.82592e-07 3.6714e-07)
(-5.11111e-95 7.59181e-07 -1.64109e-07)
(1.65747e-92 2.49933e-07 1.78288e-08)
(-1.733e-90 9.06415e-08 -1.35881e-07)
(1.94122e-81 1.17915e-07 1.14464e-05)
(4.69393e-74 -5.16709e-07 2.56139e-08)
(-2.66419e-72 -4.77117e-07 1.52802e-07)
(-3.93816e-73 5.22303e-08 -2.35971e-07)
(-4.98526e-79 2.99614e-08 1.89663e-07)
(5.534e-80 -7.60918e-07 -6.56344e-07)
(-6.29536e-82 -7.72935e-07 1.25499e-06)
(4.09107e-91 2.15202e-07 1.73827e-07)
(-4.73208e-91 1.28329e-08 9.52593e-08)
(-1.16595e-90 7.9726e-07 6.73085e-07)
(-8.98229e-80 -1.14699e-07 -7.03656e-06)
(-2.76158e-79 2.10638e-07 1.07998e-08)
(3.55571e-78 5.28508e-07 -2.20238e-08)
(-3.30511e-78 -5.79376e-07 -2.68139e-07)
(2.46808e-80 5.65975e-08 4.24003e-07)
(2.75124e-90 -7.03413e-07 -4.81365e-06)
(1.00321e-93 1.4458e-07 2.51919e-07)
(-4.32371e-92 1.47292e-06 -1.94495e-07)
(4.32679e-92 2.97674e-07 9.54552e-08)
(-1.01596e-93 2.45521e-07 -5.35972e-06)
(4.45216e-24 8.84416e-06 4.96545e-06)
(8.46413e-26 2.75019e-06 -3.80913e-06)
(7.49272e-41 7.94203e-08 -9.15732e-07)
(-2.3662e-35 -1.92383e-06 -3.76973e-06)
(-6.36976e-41 -3.80696e-06 -4.17234e-06)
(1.68272e-40 4.48775e-06 -1.50713e-06)
(4.7679e-41 2.8987e-06 -2.45808e-06)
(0 -1.89829e-06 -2.06764e-06)
(-5.17997e-62 -2.32936e-06 -2.73235e-06)
(-2.44789e-64 -2.58949e-06 8.73444e-08)
(-5.71073e-66 2.65717e-06 -4.93699e-06)
(2.34639e-70 4.05421e-06 -7.36997e-06)
(0 -2.35284e-06 9.07498e-07)
(1.14604e-95 -6.98361e-06 7.44309e-07)
(-1.64989e-94 -2.791e-06 -1.46133e-06)
(-8.76898e-93 8.38401e-06 -3.32813e-06)
(1.81395e-90 4.10877e-06 -3.9363e-07)
(-6.92865e-83 1.62019e-06 1.19102e-05)
(-6.12176e-98 -8.45469e-07 -5.08472e-06)
(4.75415e-96 -4.46398e-06 -1.89863e-06)
(-9.12661e-95 -1.39109e-06 -1.82866e-06)
(2.09943e-93 3.31107e-06 -5.04205e-06)
(-1.05923e-85 -4.23049e-06 -6.92868e-06)
(-4.66998e-126 -5.08219e-06 -2.72986e-06)
(3.7581e-130 -7.49409e-06 -5.57889e-06)
(-1.25772e-131 7.96294e-06 -5.78561e-06)
(5.22805e-130 4.59227e-06 -4.0946e-06)
(-3.70913e-111 3.41491e-06 -1.62636e-05)
(-4.12363e-112 -1.92733e-06 -5.65776e-06)
(-1.85577e-107 1.41216e-06 -4.75644e-06)
(-6.91496e-107 -2.21834e-06 -1.11782e-07)
(2.68802e-104 1.69168e-06 -1.98485e-06)
(-2.3024e-90 1.8305e-07 -8.23683e-08)
(-1.64718e-104 -1.21737e-06 -2.28167e-06)
(5.84421e-108 8.25339e-06 -7.99704e-08)
(1.53924e-111 5.45412e-06 -5.62345e-06)
(0 5.55228e-08 9.14579e-06)
(-4.36024e-33 -2.06576e-07 -4.49426e-07)
(-3.84815e-30 3.56831e-07 -1.44654e-06)
(-1.18633e-32 -1.09307e-06 -3.50118e-06)
(2.54572e-36 -1.13721e-06 -5.20896e-06)
(-4.62952e-46 9.14794e-07 -4.38921e-07)
(3.61232e-47 7.15367e-07 8.31866e-07)
(-7.94263e-46 1.55579e-06 -1.69284e-07)
(-9.82754e-49 5.58964e-07 8.92725e-06)
(1.5858e-60 1.48824e-07 -9.52372e-07)
(1.41961e-62 -1.34954e-07 1.77501e-06)
(3.35657e-64 -2.33545e-06 1.18515e-06)
(-3.69222e-68 -7.66956e-07 5.1947e-07)
(-2.60409e-73 4.12469e-07 8.33837e-08)
(-2.57488e-104 -2.40304e-08 5.51181e-06)
(2.80997e-101 3.0029e-07 2.18719e-06)
(-8.84964e-100 1.42334e-06 -1.49037e-06)
(2.47155e-107 1.37546e-07 -9.42024e-07)
(5.92561e-85 3.71475e-07 1.62914e-06)
(3.99246e-105 -1.39922e-06 -2.33335e-06)
(2.0407e-100 1.20848e-07 2.9629e-06)
(-2.05882e-100 -1.35131e-06 -9.44618e-07)
(7.49397e-95 4.3628e-07 -1.55466e-06)
(-7.49346e-95 -2.0602e-06 2.03512e-05)
(7.79339e-126 -1.01776e-06 -1.69466e-06)
(-9.12289e-129 -1.21122e-06 1.82598e-06)
(4.29703e-131 1.33048e-06 1.9312e-06)
(2.50998e-129 1.00986e-06 -9.36193e-07)
(-1.12178e-107 1.42415e-06 1.03216e-05)
(1.18418e-105 1.74622e-06 -1.00022e-06)
(-4.99898e-104 2.95529e-06 2.24734e-06)
(1.14282e-102 -2.49435e-07 1.67343e-06)
(-1.34119e-102 -2.95707e-07 -1.29549e-06)
(-1.46163e-89 -1.93332e-07 2.32379e-07)
(1.16464e-100 6.92479e-07 -7.01124e-07)
(-1.16435e-100 6.83981e-07 1.02531e-06)
(-9.85006e-118 3.34011e-07 1.49458e-06)
(-9.12435e-123 9.28541e-08 2.15001e-08)
(2.19588e-20 1.60478e-08 -6.01809e-07)
(-2.54725e-26 -3.45346e-07 6.05736e-07)
(6.92246e-29 -4.84786e-07 -1.03588e-05)
(-1.78674e-38 -3.83399e-07 -1.32836e-06)
(-1.90227e-45 -2.70524e-06 3.80763e-06)
(1.66898e-46 -3.41129e-07 9.54386e-08)
(2.43439e-46 3.49737e-07 1.83167e-06)
(9.82754e-49 1.85354e-06 -8.13794e-06)
(-3.42076e-56 4.571e-07 3.08767e-07)
(2.88365e-57 -5.89921e-09 1.09671e-07)
(-1.37664e-60 -1.39486e-07 2.46903e-06)
(1.65939e-62 -1.18706e-06 4.48078e-06)
(-8.61336e-65 -2.96958e-07 5.62676e-06)
(9.76811e-105 -1.14677e-07 4.71609e-06)
(-9.18517e-103 -3.54693e-07 3.32969e-06)
(2.92646e-101 7.70976e-07 1.29919e-06)
(-2.69798e-108 -8.8014e-07 -2.39227e-06)
(2.92426e-110 -3.31426e-07 -1.29443e-05)
(-1.13639e-107 3.54059e-07 5.38245e-06)
(4.35253e-105 -1.16951e-06 1.43625e-06)
(2.32522e-104 4.61969e-07 5.29179e-07)
(1.131e-101 1.63376e-06 -1.8365e-08)
(4.6433e-115 2.53635e-06 -1.3155e-05)
(-2.35798e-126 -6.09078e-07 -2.00992e-07)
(9.75461e-128 -1.35388e-06 4.11253e-06)
(-8.73064e-129 5.59544e-07 4.08524e-06)
(-3.77132e-129 2.55569e-07 2.94534e-08)
(3.02741e-110 -2.6839e-07 6.47054e-06)
(2.40167e-112 2.04631e-07 3.4827e-07)
(-8.50652e-105 -6.07483e-07 3.63787e-06)
(-7.43479e-104 -1.13017e-07 1.64549e-07)
(3.18526e-102 -3.66128e-07 -2.95987e-07)
(1.7371e-89 2.42993e-07 5.0794e-06)
(-1.39368e-104 -3.48492e-07 1.73338e-08)
(3.45091e-107 4.35595e-07 -4.52965e-07)
(1.3755e-115 3.51785e-07 3.50031e-06)
(-1.71549e-116 5.32462e-08 -2.56573e-08)
(-4.48442e-20 4.29444e-07 5.25014e-07)
(-3.41967e-31 -9.34374e-07 2.05261e-07)
(1.72262e-35 3.79286e-07 -2.45671e-06)
(4.75401e-40 -4.74241e-07 4.66641e-07)
(-1.06495e-42 -2.26157e-06 6.03896e-07)
(8.25926e-44 -5.00322e-07 -5.91084e-07)
(-1.57401e-45 5.3225e-07 5.82307e-07)